
Compatibility modes selected: hs a

Warning: m=xx on .subckt line will override multiplier m hierarchy!


Circuit: ** sch_path: /home/darunix/gitsandboxes/vco/vco/xschem/3-stage_cs-vco_tb.sch

option SCALE: Scale is set to 1e-06 for instance and model parameters
Reset re-loads circuit ** sch_path: /home/darunix/gitsandboxes/vco/vco/xschem/3-stage_cs-vco_tb.sch

Circuit: ** sch_path: /home/darunix/gitsandboxes/vco/vco/xschem/3-stage_cs-vco_tb.sch

option SCALE: Scale is set to 1e-06 for instance and model parameters
Reset re-loads circuit ** sch_path: /home/darunix/gitsandboxes/vco/vco/xschem/3-stage_cs-vco_tb.sch

Circuit: ** sch_path: /home/darunix/gitsandboxes/vco/vco/xschem/3-stage_cs-vco_tb.sch

option SCALE: Scale is set to 1e-06 for instance and model parameters
Doing analysis at TEMP = 27.000000 and TNOM = 27.000000

Warning: v1: no DC value, transient time 0 value used

Initial Transient Solution
--------------------------

Node                                   Voltage
----                                   -------
int_out_x1_3                       6.80528e-09
int_net1_x1_1                              1.8
int_net2_x1_2                                0
int_vctrl_x1_4                               0
net1                                       1.8
net2                                         0
out                                6.80528e-09
vctrl                                        0
vdd                                        1.8
int_vdd_x2_1                               1.8
int_out_x2_2                       6.80528e-09
int_gnd_x2_3                                 0
int_gnd_x3_2                                 0
int_out_x3_1                       6.80528e-09
int_gnd_x3_3                                 0
int_buf1_out_x3_6                  2.60627e-09
int_vdd_x3_5                               1.8
int_vdd_x3_4                               1.8
buf1_out                           2.60627e-09
int_buf1_out_x4_1                  2.60627e-09
int_vdd_x4_5                               1.8
int_vdd_x4_4                               1.8
int_gnd_x4_2                                 0
int_gnd_x4_3                                 0
int_net4_x4_6                       4.9501e-09
net4                                4.9501e-09
int_vdd_x5_5                               1.8
int_net5_x5_6                       4.9501e-09
int_vdd_x5_4                               1.8
int_net4_x5_1                       4.9501e-09
int_gnd_x5_2                                 0
int_gnd_x5_3                                 0
net5                                4.9501e-09
int_net3_x6_6                       4.9501e-09
int_gnd_x6_2                                 0
int_gnd_x6_3                                 0
int_net5_x6_1                       4.9501e-09
int_vdd_x6_5                               1.8
int_vdd_x6_4                               1.8
net3                                4.9501e-09
int_vdd_x7_5                               1.8
int_buf16_out_x7_6                  4.9501e-09
int_vdd_x7_4                               1.8
int_gnd_x7_2                                 0
int_gnd_x7_3                                 0
int_net3_x7_1                       4.9501e-09
buf16_out                           4.9501e-09
v1#branch                                    0
x7:x#branch                                  0
x7:vpwr#branch                    -8.17036e-12
x7:vpb#branch                     -4.15222e-11
x7:vnb#branch                       7.2401e-12
x7:vgnd#branch                     4.24513e-11
x7:a#branch                                  0
x6:x#branch                                  0
x6:vpwr#branch                    -4.08518e-12
x6:vpb#branch                     -2.07605e-11
x6:vnb#branch                      3.62005e-12
x6:vgnd#branch                     2.12257e-11
x6:a#branch                                  0
x5:x#branch                                  0
x5:vpwr#branch                    -2.04259e-12
x5:vpb#branch                     -1.03803e-11
x5:vnb#branch                      1.81003e-12
x5:vgnd#branch                     1.06128e-11
x5:a#branch                                  0
x4:x#branch                                  0
x4:vpwr#branch                     -1.9439e-12
x4:vpb#branch                     -5.19019e-12
x4:vnb#branch                      1.81003e-12
x4:vgnd#branch                     5.32401e-12
x4:a#branch                                  0
x3:x#branch                                  0
x3:vpwr#branch                    -2.01847e-12
x3:vpb#branch                     -1.80997e-12
x3:vnb#branch                      1.81009e-12
x3:vgnd#branch                     2.01837e-12
x3:a#branch                                  0
x2:vss#branch                    -2.44395e-222
x2:clk#branch                      8.07794e-27
x2:vdd#branch                      5.32907e-15
vmeas_current_gnd#branch           3.44866e-05
vmeas_current_vdd#branch           3.44866e-05
v2#branch                         -3.44867e-05
x1:vctrl#branch                              0
x1:out#branch                     -8.07794e-27
x1:vss#branch                      3.44866e-05
x1:vdd#branch                     -3.44866e-05


No. of Data Rows : 7020

  Measurements for Transient Analysis


Error: measure  tvco_outside_while  (TRIG) : out of interval
 .meas tran tvco_outside_while trig v(out) val=0.5*1.8 rise=50 targ v(out) val=0.5*1.8 rise=51 failed!

Original line no.: 0, new internal line no.: 12503:
Undefined number [tvco_outside_while]
Original line no.: 0, new internal line no.: 12503:
Cannot compute substitute
fvco_outside_while  =   failed
supply_current_rms_outside_while=   4.67365e-05 from=  1.00000e-08 to=  4.00000e-08
ground_current_rms_outside_while=   9.38284e-06 from=  1.00000e-08 to=  4.00000e-08
vctrl_avg_outside_while=  0.000000e+00 from=  1.000000e-08 to=  2.000500e-08
vhigh_outside_while =  3.268855e-06 at=  1.000500e-08
vlow_outside_while  =  -3.251299e-06 at=  1.001500e-08
peak_to_peak_outside_while=  6.52015e-06
supply_current_rms  =   6.38002e-05 from=  0.00000e+00 to=  7.00000e-08

binary raw file "3-stage_cs-vco_tb_WITH_APPENDWRITE.raw"
Reset re-loads circuit ** sch_path: /home/darunix/gitsandboxes/vco/vco/xschem/3-stage_cs-vco_tb.sch

Circuit: ** sch_path: /home/darunix/gitsandboxes/vco/vco/xschem/3-stage_cs-vco_tb.sch

option SCALE: Scale is set to 1e-06 for instance and model parameters
Doing analysis at TEMP = 27.000000 and TNOM = 27.000000

Warning: v1: no DC value, transient time 0 value used

Initial Transient Solution
--------------------------

Node                                   Voltage
----                                   -------
int_out_x1_3                       6.80528e-09
int_net1_x1_1                              1.8
int_net2_x1_2                                0
int_vctrl_x1_4                               0
net1                                       1.8
net2                                         0
out                                6.80528e-09
vctrl                                        0
vdd                                        1.8
int_vdd_x2_1                               1.8
int_out_x2_2                       6.80528e-09
int_gnd_x2_3                                 0
int_gnd_x3_2                                 0
int_out_x3_1                       6.80528e-09
int_gnd_x3_3                                 0
int_buf1_out_x3_6                  2.60627e-09
int_vdd_x3_5                               1.8
int_vdd_x3_4                               1.8
buf1_out                           2.60627e-09
int_buf1_out_x4_1                  2.60627e-09
int_vdd_x4_5                               1.8
int_vdd_x4_4                               1.8
int_gnd_x4_2                                 0
int_gnd_x4_3                                 0
int_net4_x4_6                       4.9501e-09
net4                                4.9501e-09
int_vdd_x5_5                               1.8
int_net5_x5_6                       4.9501e-09
int_vdd_x5_4                               1.8
int_net4_x5_1                       4.9501e-09
int_gnd_x5_2                                 0
int_gnd_x5_3                                 0
net5                                4.9501e-09
int_net3_x6_6                       4.9501e-09
int_gnd_x6_2                                 0
int_gnd_x6_3                                 0
int_net5_x6_1                       4.9501e-09
int_vdd_x6_5                               1.8
int_vdd_x6_4                               1.8
net3                                4.9501e-09
int_vdd_x7_5                               1.8
int_buf16_out_x7_6                  4.9501e-09
int_vdd_x7_4                               1.8
int_gnd_x7_2                                 0
int_gnd_x7_3                                 0
int_net3_x7_1                       4.9501e-09
buf16_out                           4.9501e-09
v1#branch                                    0
x7:x#branch                                  0
x7:vpwr#branch                    -8.17036e-12
x7:vpb#branch                     -4.15222e-11
x7:vnb#branch                       7.2401e-12
x7:vgnd#branch                     4.24513e-11
x7:a#branch                                  0
x6:x#branch                                  0
x6:vpwr#branch                    -4.08518e-12
x6:vpb#branch                     -2.07605e-11
x6:vnb#branch                      3.62005e-12
x6:vgnd#branch                     2.12257e-11
x6:a#branch                                  0
x5:x#branch                                  0
x5:vpwr#branch                    -2.04259e-12
x5:vpb#branch                     -1.03803e-11
x5:vnb#branch                      1.81003e-12
x5:vgnd#branch                     1.06128e-11
x5:a#branch                                  0
x4:x#branch                                  0
x4:vpwr#branch                     -1.9439e-12
x4:vpb#branch                     -5.19019e-12
x4:vnb#branch                      1.81003e-12
x4:vgnd#branch                     5.32401e-12
x4:a#branch                                  0
x3:x#branch                                  0
x3:vpwr#branch                    -2.01847e-12
x3:vpb#branch                     -1.80997e-12
x3:vnb#branch                      1.81009e-12
x3:vgnd#branch                     2.01837e-12
x3:a#branch                                  0
x2:vss#branch                    -2.44395e-222
x2:clk#branch                      8.07794e-27
x2:vdd#branch                      5.32907e-15
vmeas_current_gnd#branch           3.44866e-05
vmeas_current_vdd#branch           3.44866e-05
v2#branch                         -3.44867e-05
x1:vctrl#branch                              0
x1:out#branch                     -8.07794e-27
x1:vss#branch                      3.44866e-05
x1:vdd#branch                     -3.44866e-05


No. of Data Rows : 7020

  Measurements for Transient Analysis


Error: measure  tvco_outside_while  (TRIG) : out of interval
 .meas tran tvco_outside_while trig v(out) val=0.5*1.8 rise=50 targ v(out) val=0.5*1.8 rise=51 failed!

Original line no.: 0, new internal line no.: 12503:
Undefined number [tvco_outside_while]
Original line no.: 0, new internal line no.: 12503:
Cannot compute substitute
fvco_outside_while  =   failed
supply_current_rms_outside_while=   1.91112e-05 from=  1.00000e-08 to=  4.00000e-08
ground_current_rms_outside_while=   1.28653e-05 from=  1.00000e-08 to=  4.00000e-08
vctrl_avg_outside_while=  1.000000e-01 from=  1.000000e-08 to=  2.000500e-08
vhigh_outside_while =  2.955698e-06 at=  1.001500e-08
vlow_outside_while  =  -2.946381e-06 at=  1.000500e-08
peak_to_peak_outside_while=  5.90208e-06
supply_current_rms  =   4.88644e-05 from=  0.00000e+00 to=  7.00000e-08

binary raw file "3-stage_cs-vco_tb_WITH_APPENDWRITE.raw"
Reset re-loads circuit ** sch_path: /home/darunix/gitsandboxes/vco/vco/xschem/3-stage_cs-vco_tb.sch

Circuit: ** sch_path: /home/darunix/gitsandboxes/vco/vco/xschem/3-stage_cs-vco_tb.sch

option SCALE: Scale is set to 1e-06 for instance and model parameters
Doing analysis at TEMP = 27.000000 and TNOM = 27.000000

Warning: v1: no DC value, transient time 0 value used

Initial Transient Solution
--------------------------

Node                                   Voltage
----                                   -------
int_out_x1_3                       6.80528e-09
int_net1_x1_1                              1.8
int_net2_x1_2                                0
int_vctrl_x1_4                               0
net1                                       1.8
net2                                         0
out                                6.80528e-09
vctrl                                        0
vdd                                        1.8
int_vdd_x2_1                               1.8
int_out_x2_2                       6.80528e-09
int_gnd_x2_3                                 0
int_gnd_x3_2                                 0
int_out_x3_1                       6.80528e-09
int_gnd_x3_3                                 0
int_buf1_out_x3_6                  2.60627e-09
int_vdd_x3_5                               1.8
int_vdd_x3_4                               1.8
buf1_out                           2.60627e-09
int_buf1_out_x4_1                  2.60627e-09
int_vdd_x4_5                               1.8
int_vdd_x4_4                               1.8
int_gnd_x4_2                                 0
int_gnd_x4_3                                 0
int_net4_x4_6                       4.9501e-09
net4                                4.9501e-09
int_vdd_x5_5                               1.8
int_net5_x5_6                       4.9501e-09
int_vdd_x5_4                               1.8
int_net4_x5_1                       4.9501e-09
int_gnd_x5_2                                 0
int_gnd_x5_3                                 0
net5                                4.9501e-09
int_net3_x6_6                       4.9501e-09
int_gnd_x6_2                                 0
int_gnd_x6_3                                 0
int_net5_x6_1                       4.9501e-09
int_vdd_x6_5                               1.8
int_vdd_x6_4                               1.8
net3                                4.9501e-09
int_vdd_x7_5                               1.8
int_buf16_out_x7_6                  4.9501e-09
int_vdd_x7_4                               1.8
int_gnd_x7_2                                 0
int_gnd_x7_3                                 0
int_net3_x7_1                       4.9501e-09
buf16_out                           4.9501e-09
v1#branch                                    0
x7:x#branch                                  0
x7:vpwr#branch                    -8.17036e-12
x7:vpb#branch                     -4.15222e-11
x7:vnb#branch                       7.2401e-12
x7:vgnd#branch                     4.24513e-11
x7:a#branch                                  0
x6:x#branch                                  0
x6:vpwr#branch                    -4.08518e-12
x6:vpb#branch                     -2.07605e-11
x6:vnb#branch                      3.62005e-12
x6:vgnd#branch                     2.12257e-11
x6:a#branch                                  0
x5:x#branch                                  0
x5:vpwr#branch                    -2.04259e-12
x5:vpb#branch                     -1.03803e-11
x5:vnb#branch                      1.81003e-12
x5:vgnd#branch                     1.06128e-11
x5:a#branch                                  0
x4:x#branch                                  0
x4:vpwr#branch                     -1.9439e-12
x4:vpb#branch                     -5.19019e-12
x4:vnb#branch                      1.81003e-12
x4:vgnd#branch                     5.32401e-12
x4:a#branch                                  0
x3:x#branch                                  0
x3:vpwr#branch                    -2.01847e-12
x3:vpb#branch                     -1.80997e-12
x3:vnb#branch                      1.81009e-12
x3:vgnd#branch                     2.01837e-12
x3:a#branch                                  0
x2:vss#branch                    -2.44395e-222
x2:clk#branch                      8.07794e-27
x2:vdd#branch                      5.32907e-15
vmeas_current_gnd#branch           3.44866e-05
vmeas_current_vdd#branch           3.44866e-05
v2#branch                         -3.44867e-05
x1:vctrl#branch                              0
x1:out#branch                     -8.07794e-27
x1:vss#branch                      3.44866e-05
x1:vdd#branch                     -3.44866e-05


No. of Data Rows : 7020

  Measurements for Transient Analysis


Error: measure  tvco_outside_while  (TRIG) : out of interval
 .meas tran tvco_outside_while trig v(out) val=0.5*1.8 rise=50 targ v(out) val=0.5*1.8 rise=51 failed!

Original line no.: 0, new internal line no.: 12503:
Undefined number [tvco_outside_while]
Original line no.: 0, new internal line no.: 12503:
Cannot compute substitute
fvco_outside_while  =   failed
supply_current_rms_outside_while=   2.68335e-05 from=  1.00000e-08 to=  4.00000e-08
ground_current_rms_outside_while=   3.93479e-05 from=  1.00000e-08 to=  4.00000e-08
vctrl_avg_outside_while=  2.000000e-01 from=  1.000000e-08 to=  2.000500e-08
vhigh_outside_while =  1.267482e-06 at=  1.001500e-08
vlow_outside_while  =  -1.257764e-06 at=  1.000500e-08
peak_to_peak_outside_while=  2.52525e-06
supply_current_rms  =   5.19737e-05 from=  0.00000e+00 to=  7.00000e-08

binary raw file "3-stage_cs-vco_tb_WITH_APPENDWRITE.raw"
Reset re-loads circuit ** sch_path: /home/darunix/gitsandboxes/vco/vco/xschem/3-stage_cs-vco_tb.sch

Circuit: ** sch_path: /home/darunix/gitsandboxes/vco/vco/xschem/3-stage_cs-vco_tb.sch

option SCALE: Scale is set to 1e-06 for instance and model parameters
Doing analysis at TEMP = 27.000000 and TNOM = 27.000000

Warning: v1: no DC value, transient time 0 value used

Initial Transient Solution
--------------------------

Node                                   Voltage
----                                   -------
int_out_x1_3                       6.80528e-09
int_net1_x1_1                              1.8
int_net2_x1_2                                0
int_vctrl_x1_4                               0
net1                                       1.8
net2                                         0
out                                6.80528e-09
vctrl                                        0
vdd                                        1.8
int_vdd_x2_1                               1.8
int_out_x2_2                       6.80528e-09
int_gnd_x2_3                                 0
int_gnd_x3_2                                 0
int_out_x3_1                       6.80528e-09
int_gnd_x3_3                                 0
int_buf1_out_x3_6                  2.60627e-09
int_vdd_x3_5                               1.8
int_vdd_x3_4                               1.8
buf1_out                           2.60627e-09
int_buf1_out_x4_1                  2.60627e-09
int_vdd_x4_5                               1.8
int_vdd_x4_4                               1.8
int_gnd_x4_2                                 0
int_gnd_x4_3                                 0
int_net4_x4_6                       4.9501e-09
net4                                4.9501e-09
int_vdd_x5_5                               1.8
int_net5_x5_6                       4.9501e-09
int_vdd_x5_4                               1.8
int_net4_x5_1                       4.9501e-09
int_gnd_x5_2                                 0
int_gnd_x5_3                                 0
net5                                4.9501e-09
int_net3_x6_6                       4.9501e-09
int_gnd_x6_2                                 0
int_gnd_x6_3                                 0
int_net5_x6_1                       4.9501e-09
int_vdd_x6_5                               1.8
int_vdd_x6_4                               1.8
net3                                4.9501e-09
int_vdd_x7_5                               1.8
int_buf16_out_x7_6                  4.9501e-09
int_vdd_x7_4                               1.8
int_gnd_x7_2                                 0
int_gnd_x7_3                                 0
int_net3_x7_1                       4.9501e-09
buf16_out                           4.9501e-09
v1#branch                                    0
x7:x#branch                                  0
x7:vpwr#branch                    -8.17036e-12
x7:vpb#branch                     -4.15222e-11
x7:vnb#branch                       7.2401e-12
x7:vgnd#branch                     4.24513e-11
x7:a#branch                                  0
x6:x#branch                                  0
x6:vpwr#branch                    -4.08518e-12
x6:vpb#branch                     -2.07605e-11
x6:vnb#branch                      3.62005e-12
x6:vgnd#branch                     2.12257e-11
x6:a#branch                                  0
x5:x#branch                                  0
x5:vpwr#branch                    -2.04259e-12
x5:vpb#branch                     -1.03803e-11
x5:vnb#branch                      1.81003e-12
x5:vgnd#branch                     1.06128e-11
x5:a#branch                                  0
x4:x#branch                                  0
x4:vpwr#branch                     -1.9439e-12
x4:vpb#branch                     -5.19019e-12
x4:vnb#branch                      1.81003e-12
x4:vgnd#branch                     5.32401e-12
x4:a#branch                                  0
x3:x#branch                                  0
x3:vpwr#branch                    -2.01847e-12
x3:vpb#branch                     -1.80997e-12
x3:vnb#branch                      1.81009e-12
x3:vgnd#branch                     2.01837e-12
x3:a#branch                                  0
x2:vss#branch                    -2.44395e-222
x2:clk#branch                      8.07794e-27
x2:vdd#branch                      5.32907e-15
vmeas_current_gnd#branch           3.44866e-05
vmeas_current_vdd#branch           3.44866e-05
v2#branch                         -3.44867e-05
x1:vctrl#branch                              0
x1:out#branch                     -8.07794e-27
x1:vss#branch                      3.44866e-05
x1:vdd#branch                     -3.44866e-05


No. of Data Rows : 7020

  Measurements for Transient Analysis


Error: measure  tvco_outside_while  (TRIG) : out of interval
 .meas tran tvco_outside_while trig v(out) val=0.5*1.8 rise=50 targ v(out) val=0.5*1.8 rise=51 failed!

Original line no.: 0, new internal line no.: 12503:
Undefined number [tvco_outside_while]
Original line no.: 0, new internal line no.: 12503:
Cannot compute substitute
fvco_outside_while  =   failed
supply_current_rms_outside_while=   4.31150e-05 from=  1.00000e-08 to=  4.00000e-08
ground_current_rms_outside_while=   1.37176e-05 from=  1.00000e-08 to=  4.00000e-08
vctrl_avg_outside_while=  3.000000e-01 from=  1.000000e-08 to=  2.000500e-08
vhigh_outside_while =  1.150640e-06 at=  1.998500e-08
vlow_outside_while  =  -1.137131e-06 at=  1.999500e-08
peak_to_peak_outside_while=  2.28777e-06
supply_current_rms  =   6.10642e-05 from=  0.00000e+00 to=  7.00000e-08

binary raw file "3-stage_cs-vco_tb_WITH_APPENDWRITE.raw"
Reset re-loads circuit ** sch_path: /home/darunix/gitsandboxes/vco/vco/xschem/3-stage_cs-vco_tb.sch

Circuit: ** sch_path: /home/darunix/gitsandboxes/vco/vco/xschem/3-stage_cs-vco_tb.sch

option SCALE: Scale is set to 1e-06 for instance and model parameters
Doing analysis at TEMP = 27.000000 and TNOM = 27.000000

Warning: v1: no DC value, transient time 0 value used

Initial Transient Solution
--------------------------

Node                                   Voltage
----                                   -------
int_out_x1_3                       6.80528e-09
int_net1_x1_1                              1.8
int_net2_x1_2                                0
int_vctrl_x1_4                               0
net1                                       1.8
net2                                         0
out                                6.80528e-09
vctrl                                        0
vdd                                        1.8
int_vdd_x2_1                               1.8
int_out_x2_2                       6.80528e-09
int_gnd_x2_3                                 0
int_gnd_x3_2                                 0
int_out_x3_1                       6.80528e-09
int_gnd_x3_3                                 0
int_buf1_out_x3_6                  2.60627e-09
int_vdd_x3_5                               1.8
int_vdd_x3_4                               1.8
buf1_out                           2.60627e-09
int_buf1_out_x4_1                  2.60627e-09
int_vdd_x4_5                               1.8
int_vdd_x4_4                               1.8
int_gnd_x4_2                                 0
int_gnd_x4_3                                 0
int_net4_x4_6                       4.9501e-09
net4                                4.9501e-09
int_vdd_x5_5                               1.8
int_net5_x5_6                       4.9501e-09
int_vdd_x5_4                               1.8
int_net4_x5_1                       4.9501e-09
int_gnd_x5_2                                 0
int_gnd_x5_3                                 0
net5                                4.9501e-09
int_net3_x6_6                       4.9501e-09
int_gnd_x6_2                                 0
int_gnd_x6_3                                 0
int_net5_x6_1                       4.9501e-09
int_vdd_x6_5                               1.8
int_vdd_x6_4                               1.8
net3                                4.9501e-09
int_vdd_x7_5                               1.8
int_buf16_out_x7_6                  4.9501e-09
int_vdd_x7_4                               1.8
int_gnd_x7_2                                 0
int_gnd_x7_3                                 0
int_net3_x7_1                       4.9501e-09
buf16_out                           4.9501e-09
v1#branch                                    0
x7:x#branch                                  0
x7:vpwr#branch                    -8.17036e-12
x7:vpb#branch                     -4.15222e-11
x7:vnb#branch                       7.2401e-12
x7:vgnd#branch                     4.24513e-11
x7:a#branch                                  0
x6:x#branch                                  0
x6:vpwr#branch                    -4.08518e-12
x6:vpb#branch                     -2.07605e-11
x6:vnb#branch                      3.62005e-12
x6:vgnd#branch                     2.12257e-11
x6:a#branch                                  0
x5:x#branch                                  0
x5:vpwr#branch                    -2.04259e-12
x5:vpb#branch                     -1.03803e-11
x5:vnb#branch                      1.81003e-12
x5:vgnd#branch                     1.06128e-11
x5:a#branch                                  0
x4:x#branch                                  0
x4:vpwr#branch                     -1.9439e-12
x4:vpb#branch                     -5.19019e-12
x4:vnb#branch                      1.81003e-12
x4:vgnd#branch                     5.32401e-12
x4:a#branch                                  0
x3:x#branch                                  0
x3:vpwr#branch                    -2.01847e-12
x3:vpb#branch                     -1.80997e-12
x3:vnb#branch                      1.81009e-12
x3:vgnd#branch                     2.01837e-12
x3:a#branch                                  0
x2:vss#branch                    -2.44395e-222
x2:clk#branch                      8.07794e-27
x2:vdd#branch                      5.32907e-15
vmeas_current_gnd#branch           3.44866e-05
vmeas_current_vdd#branch           3.44866e-05
v2#branch                         -3.44867e-05
x1:vctrl#branch                              0
x1:out#branch                     -8.07794e-27
x1:vss#branch                      3.44866e-05
x1:vdd#branch                     -3.44866e-05


No. of Data Rows : 7020

  Measurements for Transient Analysis


Error: measure  tvco_outside_while  (TRIG) : out of interval
 .meas tran tvco_outside_while trig v(out) val=0.5*1.8 rise=50 targ v(out) val=0.5*1.8 rise=51 failed!

Original line no.: 0, new internal line no.: 12503:
Undefined number [tvco_outside_while]
Original line no.: 0, new internal line no.: 12503:
Cannot compute substitute
fvco_outside_while  =   failed
supply_current_rms_outside_while=   4.53128e-05 from=  1.00000e-08 to=  4.00000e-08
ground_current_rms_outside_while=   3.34202e-05 from=  1.00000e-08 to=  4.00000e-08
vctrl_avg_outside_while=  4.000000e-01 from=  1.000000e-08 to=  2.000500e-08
vhigh_outside_while =  2.212277e-06 at=  1.001500e-08
vlow_outside_while  =  -2.204058e-06 at=  1.000500e-08
peak_to_peak_outside_while=  4.41634e-06
supply_current_rms  =   6.18481e-05 from=  0.00000e+00 to=  7.00000e-08

binary raw file "3-stage_cs-vco_tb_WITH_APPENDWRITE.raw"
Reset re-loads circuit ** sch_path: /home/darunix/gitsandboxes/vco/vco/xschem/3-stage_cs-vco_tb.sch

Circuit: ** sch_path: /home/darunix/gitsandboxes/vco/vco/xschem/3-stage_cs-vco_tb.sch

option SCALE: Scale is set to 1e-06 for instance and model parameters
Doing analysis at TEMP = 27.000000 and TNOM = 27.000000

Warning: v1: no DC value, transient time 0 value used

Initial Transient Solution
--------------------------

Node                                   Voltage
----                                   -------
int_out_x1_3                       6.80528e-09
int_net1_x1_1                              1.8
int_net2_x1_2                                0
int_vctrl_x1_4                               0
net1                                       1.8
net2                                         0
out                                6.80528e-09
vctrl                                        0
vdd                                        1.8
int_vdd_x2_1                               1.8
int_out_x2_2                       6.80528e-09
int_gnd_x2_3                                 0
int_gnd_x3_2                                 0
int_out_x3_1                       6.80528e-09
int_gnd_x3_3                                 0
int_buf1_out_x3_6                  2.60627e-09
int_vdd_x3_5                               1.8
int_vdd_x3_4                               1.8
buf1_out                           2.60627e-09
int_buf1_out_x4_1                  2.60627e-09
int_vdd_x4_5                               1.8
int_vdd_x4_4                               1.8
int_gnd_x4_2                                 0
int_gnd_x4_3                                 0
int_net4_x4_6                       4.9501e-09
net4                                4.9501e-09
int_vdd_x5_5                               1.8
int_net5_x5_6                       4.9501e-09
int_vdd_x5_4                               1.8
int_net4_x5_1                       4.9501e-09
int_gnd_x5_2                                 0
int_gnd_x5_3                                 0
net5                                4.9501e-09
int_net3_x6_6                       4.9501e-09
int_gnd_x6_2                                 0
int_gnd_x6_3                                 0
int_net5_x6_1                       4.9501e-09
int_vdd_x6_5                               1.8
int_vdd_x6_4                               1.8
net3                                4.9501e-09
int_vdd_x7_5                               1.8
int_buf16_out_x7_6                  4.9501e-09
int_vdd_x7_4                               1.8
int_gnd_x7_2                                 0
int_gnd_x7_3                                 0
int_net3_x7_1                       4.9501e-09
buf16_out                           4.9501e-09
v1#branch                                    0
x7:x#branch                                  0
x7:vpwr#branch                    -8.17036e-12
x7:vpb#branch                     -4.15222e-11
x7:vnb#branch                       7.2401e-12
x7:vgnd#branch                     4.24513e-11
x7:a#branch                                  0
x6:x#branch                                  0
x6:vpwr#branch                    -4.08518e-12
x6:vpb#branch                     -2.07605e-11
x6:vnb#branch                      3.62005e-12
x6:vgnd#branch                     2.12257e-11
x6:a#branch                                  0
x5:x#branch                                  0
x5:vpwr#branch                    -2.04259e-12
x5:vpb#branch                     -1.03803e-11
x5:vnb#branch                      1.81003e-12
x5:vgnd#branch                     1.06128e-11
x5:a#branch                                  0
x4:x#branch                                  0
x4:vpwr#branch                     -1.9439e-12
x4:vpb#branch                     -5.19019e-12
x4:vnb#branch                      1.81003e-12
x4:vgnd#branch                     5.32401e-12
x4:a#branch                                  0
x3:x#branch                                  0
x3:vpwr#branch                    -2.01847e-12
x3:vpb#branch                     -1.80997e-12
x3:vnb#branch                      1.81009e-12
x3:vgnd#branch                     2.01837e-12
x3:a#branch                                  0
x2:vss#branch                    -2.44395e-222
x2:clk#branch                      8.07794e-27
x2:vdd#branch                      5.32907e-15
vmeas_current_gnd#branch           3.44866e-05
vmeas_current_vdd#branch           3.44866e-05
v2#branch                         -3.44867e-05
x1:vctrl#branch                              0
x1:out#branch                     -8.07794e-27
x1:vss#branch                      3.44866e-05
x1:vdd#branch                     -3.44866e-05


No. of Data Rows : 7020

  Measurements for Transient Analysis


Error: measure  tvco_outside_while  (TRIG) : out of interval
 .meas tran tvco_outside_while trig v(out) val=0.5*1.8 rise=50 targ v(out) val=0.5*1.8 rise=51 failed!

Original line no.: 0, new internal line no.: 12503:
Undefined number [tvco_outside_while]
Original line no.: 0, new internal line no.: 12503:
Cannot compute substitute
fvco_outside_while  =   failed
supply_current_rms_outside_while=   7.74040e-05 from=  1.00000e-08 to=  4.00000e-08
ground_current_rms_outside_while=   6.63516e-05 from=  1.00000e-08 to=  4.00000e-08
vctrl_avg_outside_while=  5.000000e-01 from=  1.000000e-08 to=  2.000500e-08
vhigh_outside_while =  1.918852e+00 at=  1.348500e-08
vlow_outside_while  =  -7.389946e-02 at=  1.335500e-08
peak_to_peak_outside_while=  1.99275e+00
supply_current_rms  =   8.17056e-05 from=  0.00000e+00 to=  7.00000e-08

binary raw file "3-stage_cs-vco_tb_WITH_APPENDWRITE.raw"
Reset re-loads circuit ** sch_path: /home/darunix/gitsandboxes/vco/vco/xschem/3-stage_cs-vco_tb.sch

Circuit: ** sch_path: /home/darunix/gitsandboxes/vco/vco/xschem/3-stage_cs-vco_tb.sch

option SCALE: Scale is set to 1e-06 for instance and model parameters
Doing analysis at TEMP = 27.000000 and TNOM = 27.000000

Warning: v1: no DC value, transient time 0 value used

Initial Transient Solution
--------------------------

Node                                   Voltage
----                                   -------
int_out_x1_3                       6.80528e-09
int_net1_x1_1                              1.8
int_net2_x1_2                                0
int_vctrl_x1_4                               0
net1                                       1.8
net2                                         0
out                                6.80528e-09
vctrl                                        0
vdd                                        1.8
int_vdd_x2_1                               1.8
int_out_x2_2                       6.80528e-09
int_gnd_x2_3                                 0
int_gnd_x3_2                                 0
int_out_x3_1                       6.80528e-09
int_gnd_x3_3                                 0
int_buf1_out_x3_6                  2.60627e-09
int_vdd_x3_5                               1.8
int_vdd_x3_4                               1.8
buf1_out                           2.60627e-09
int_buf1_out_x4_1                  2.60627e-09
int_vdd_x4_5                               1.8
int_vdd_x4_4                               1.8
int_gnd_x4_2                                 0
int_gnd_x4_3                                 0
int_net4_x4_6                       4.9501e-09
net4                                4.9501e-09
int_vdd_x5_5                               1.8
int_net5_x5_6                       4.9501e-09
int_vdd_x5_4                               1.8
int_net4_x5_1                       4.9501e-09
int_gnd_x5_2                                 0
int_gnd_x5_3                                 0
net5                                4.9501e-09
int_net3_x6_6                       4.9501e-09
int_gnd_x6_2                                 0
int_gnd_x6_3                                 0
int_net5_x6_1                       4.9501e-09
int_vdd_x6_5                               1.8
int_vdd_x6_4                               1.8
net3                                4.9501e-09
int_vdd_x7_5                               1.8
int_buf16_out_x7_6                  4.9501e-09
int_vdd_x7_4                               1.8
int_gnd_x7_2                                 0
int_gnd_x7_3                                 0
int_net3_x7_1                       4.9501e-09
buf16_out                           4.9501e-09
v1#branch                                    0
x7:x#branch                                  0
x7:vpwr#branch                    -8.17036e-12
x7:vpb#branch                     -4.15222e-11
x7:vnb#branch                       7.2401e-12
x7:vgnd#branch                     4.24513e-11
x7:a#branch                                  0
x6:x#branch                                  0
x6:vpwr#branch                    -4.08518e-12
x6:vpb#branch                     -2.07605e-11
x6:vnb#branch                      3.62005e-12
x6:vgnd#branch                     2.12257e-11
x6:a#branch                                  0
x5:x#branch                                  0
x5:vpwr#branch                    -2.04259e-12
x5:vpb#branch                     -1.03803e-11
x5:vnb#branch                      1.81003e-12
x5:vgnd#branch                     1.06128e-11
x5:a#branch                                  0
x4:x#branch                                  0
x4:vpwr#branch                     -1.9439e-12
x4:vpb#branch                     -5.19019e-12
x4:vnb#branch                      1.81003e-12
x4:vgnd#branch                     5.32401e-12
x4:a#branch                                  0
x3:x#branch                                  0
x3:vpwr#branch                    -2.01847e-12
x3:vpb#branch                     -1.80997e-12
x3:vnb#branch                      1.81009e-12
x3:vgnd#branch                     2.01837e-12
x3:a#branch                                  0
x2:vss#branch                    -2.44395e-222
x2:clk#branch                      8.07794e-27
x2:vdd#branch                      5.32907e-15
vmeas_current_gnd#branch           3.44866e-05
vmeas_current_vdd#branch           3.44866e-05
v2#branch                         -3.44867e-05
x1:vctrl#branch                              0
x1:out#branch                     -8.07794e-27
x1:vss#branch                      3.44866e-05
x1:vdd#branch                     -3.44866e-05


No. of Data Rows : 7020

  Measurements for Transient Analysis


Error: measure  tvco_outside_while  (TRIG) : out of interval
 .meas tran tvco_outside_while trig v(out) val=0.5*1.8 rise=50 targ v(out) val=0.5*1.8 rise=51 failed!

Original line no.: 0, new internal line no.: 12503:
Undefined number [tvco_outside_while]
Original line no.: 0, new internal line no.: 12503:
Cannot compute substitute
fvco_outside_while  =   failed
supply_current_rms_outside_while=   8.11565e-05 from=  1.00000e-08 to=  4.00000e-08
ground_current_rms_outside_while=   8.88392e-05 from=  1.00000e-08 to=  4.00000e-08
vctrl_avg_outside_while=  6.000000e-01 from=  1.000000e-08 to=  2.000500e-08
vhigh_outside_while =  1.921662e+00 at=  1.167500e-08
vlow_outside_while  =  -6.328921e-02 at=  1.178500e-08
peak_to_peak_outside_while=  1.98495e+00
supply_current_rms  =   9.73306e-05 from=  0.00000e+00 to=  7.00000e-08

binary raw file "3-stage_cs-vco_tb_WITH_APPENDWRITE.raw"
Reset re-loads circuit ** sch_path: /home/darunix/gitsandboxes/vco/vco/xschem/3-stage_cs-vco_tb.sch

Circuit: ** sch_path: /home/darunix/gitsandboxes/vco/vco/xschem/3-stage_cs-vco_tb.sch

option SCALE: Scale is set to 1e-06 for instance and model parameters
Doing analysis at TEMP = 27.000000 and TNOM = 27.000000

Warning: v1: no DC value, transient time 0 value used

Initial Transient Solution
--------------------------

Node                                   Voltage
----                                   -------
int_out_x1_3                       6.80528e-09
int_net1_x1_1                              1.8
int_net2_x1_2                                0
int_vctrl_x1_4                               0
net1                                       1.8
net2                                         0
out                                6.80528e-09
vctrl                                        0
vdd                                        1.8
int_vdd_x2_1                               1.8
int_out_x2_2                       6.80528e-09
int_gnd_x2_3                                 0
int_gnd_x3_2                                 0
int_out_x3_1                       6.80528e-09
int_gnd_x3_3                                 0
int_buf1_out_x3_6                  2.60627e-09
int_vdd_x3_5                               1.8
int_vdd_x3_4                               1.8
buf1_out                           2.60627e-09
int_buf1_out_x4_1                  2.60627e-09
int_vdd_x4_5                               1.8
int_vdd_x4_4                               1.8
int_gnd_x4_2                                 0
int_gnd_x4_3                                 0
int_net4_x4_6                       4.9501e-09
net4                                4.9501e-09
int_vdd_x5_5                               1.8
int_net5_x5_6                       4.9501e-09
int_vdd_x5_4                               1.8
int_net4_x5_1                       4.9501e-09
int_gnd_x5_2                                 0
int_gnd_x5_3                                 0
net5                                4.9501e-09
int_net3_x6_6                       4.9501e-09
int_gnd_x6_2                                 0
int_gnd_x6_3                                 0
int_net5_x6_1                       4.9501e-09
int_vdd_x6_5                               1.8
int_vdd_x6_4                               1.8
net3                                4.9501e-09
int_vdd_x7_5                               1.8
int_buf16_out_x7_6                  4.9501e-09
int_vdd_x7_4                               1.8
int_gnd_x7_2                                 0
int_gnd_x7_3                                 0
int_net3_x7_1                       4.9501e-09
buf16_out                           4.9501e-09
v1#branch                                    0
x7:x#branch                                  0
x7:vpwr#branch                    -8.17036e-12
x7:vpb#branch                     -4.15222e-11
x7:vnb#branch                       7.2401e-12
x7:vgnd#branch                     4.24513e-11
x7:a#branch                                  0
x6:x#branch                                  0
x6:vpwr#branch                    -4.08518e-12
x6:vpb#branch                     -2.07605e-11
x6:vnb#branch                      3.62005e-12
x6:vgnd#branch                     2.12257e-11
x6:a#branch                                  0
x5:x#branch                                  0
x5:vpwr#branch                    -2.04259e-12
x5:vpb#branch                     -1.03803e-11
x5:vnb#branch                      1.81003e-12
x5:vgnd#branch                     1.06128e-11
x5:a#branch                                  0
x4:x#branch                                  0
x4:vpwr#branch                     -1.9439e-12
x4:vpb#branch                     -5.19019e-12
x4:vnb#branch                      1.81003e-12
x4:vgnd#branch                     5.32401e-12
x4:a#branch                                  0
x3:x#branch                                  0
x3:vpwr#branch                    -2.01847e-12
x3:vpb#branch                     -1.80997e-12
x3:vnb#branch                      1.81009e-12
x3:vgnd#branch                     2.01837e-12
x3:a#branch                                  0
x2:vss#branch                    -2.44395e-222
x2:clk#branch                      8.07794e-27
x2:vdd#branch                      5.32907e-15
vmeas_current_gnd#branch           3.44866e-05
vmeas_current_vdd#branch           3.44866e-05
v2#branch                         -3.44867e-05
x1:vctrl#branch                              0
x1:out#branch                     -8.07794e-27
x1:vss#branch                      3.44866e-05
x1:vdd#branch                     -3.44866e-05


No. of Data Rows : 7020

  Measurements for Transient Analysis

tvco_outside_while  =  5.777835e-10 targ=  2.918899e-08 trig=  2.861121e-08
fvco_outside_while  =  1.73075e+09
supply_current_rms_outside_while=   2.18747e-04 from=  1.00000e-08 to=  4.00000e-08
ground_current_rms_outside_while=   2.27846e-04 from=  1.00000e-08 to=  4.00000e-08
vctrl_avg_outside_while=  7.000000e-01 from=  1.000000e-08 to=  2.000500e-08
vhigh_outside_while =  1.928310e+00 at=  1.341500e-08
vlow_outside_while  =  -8.311601e-02 at=  1.414500e-08
peak_to_peak_outside_while=  2.01143e+00
supply_current_rms  =   2.19651e-04 from=  0.00000e+00 to=  7.00000e-08

binary raw file "3-stage_cs-vco_tb_WITH_APPENDWRITE.raw"
Reset re-loads circuit ** sch_path: /home/darunix/gitsandboxes/vco/vco/xschem/3-stage_cs-vco_tb.sch

Circuit: ** sch_path: /home/darunix/gitsandboxes/vco/vco/xschem/3-stage_cs-vco_tb.sch

option SCALE: Scale is set to 1e-06 for instance and model parameters
Doing analysis at TEMP = 27.000000 and TNOM = 27.000000

Warning: v1: no DC value, transient time 0 value used

Initial Transient Solution
--------------------------

Node                                   Voltage
----                                   -------
int_out_x1_3                       6.80528e-09
int_net1_x1_1                              1.8
int_net2_x1_2                                0
int_vctrl_x1_4                               0
net1                                       1.8
net2                                         0
out                                6.80528e-09
vctrl                                        0
vdd                                        1.8
int_vdd_x2_1                               1.8
int_out_x2_2                       6.80528e-09
int_gnd_x2_3                                 0
int_gnd_x3_2                                 0
int_out_x3_1                       6.80528e-09
int_gnd_x3_3                                 0
int_buf1_out_x3_6                  2.60627e-09
int_vdd_x3_5                               1.8
int_vdd_x3_4                               1.8
buf1_out                           2.60627e-09
int_buf1_out_x4_1                  2.60627e-09
int_vdd_x4_5                               1.8
int_vdd_x4_4                               1.8
int_gnd_x4_2                                 0
int_gnd_x4_3                                 0
int_net4_x4_6                       4.9501e-09
net4                                4.9501e-09
int_vdd_x5_5                               1.8
int_net5_x5_6                       4.9501e-09
int_vdd_x5_4                               1.8
int_net4_x5_1                       4.9501e-09
int_gnd_x5_2                                 0
int_gnd_x5_3                                 0
net5                                4.9501e-09
int_net3_x6_6                       4.9501e-09
int_gnd_x6_2                                 0
int_gnd_x6_3                                 0
int_net5_x6_1                       4.9501e-09
int_vdd_x6_5                               1.8
int_vdd_x6_4                               1.8
net3                                4.9501e-09
int_vdd_x7_5                               1.8
int_buf16_out_x7_6                  4.9501e-09
int_vdd_x7_4                               1.8
int_gnd_x7_2                                 0
int_gnd_x7_3                                 0
int_net3_x7_1                       4.9501e-09
buf16_out                           4.9501e-09
v1#branch                                    0
x7:x#branch                                  0
x7:vpwr#branch                    -8.17036e-12
x7:vpb#branch                     -4.15222e-11
x7:vnb#branch                       7.2401e-12
x7:vgnd#branch                     4.24513e-11
x7:a#branch                                  0
x6:x#branch                                  0
x6:vpwr#branch                    -4.08518e-12
x6:vpb#branch                     -2.07605e-11
x6:vnb#branch                      3.62005e-12
x6:vgnd#branch                     2.12257e-11
x6:a#branch                                  0
x5:x#branch                                  0
x5:vpwr#branch                    -2.04259e-12
x5:vpb#branch                     -1.03803e-11
x5:vnb#branch                      1.81003e-12
x5:vgnd#branch                     1.06128e-11
x5:a#branch                                  0
x4:x#branch                                  0
x4:vpwr#branch                     -1.9439e-12
x4:vpb#branch                     -5.19019e-12
x4:vnb#branch                      1.81003e-12
x4:vgnd#branch                     5.32401e-12
x4:a#branch                                  0
x3:x#branch                                  0
x3:vpwr#branch                    -2.01847e-12
x3:vpb#branch                     -1.80997e-12
x3:vnb#branch                      1.81009e-12
x3:vgnd#branch                     2.01837e-12
x3:a#branch                                  0
x2:vss#branch                    -2.44395e-222
x2:clk#branch                      8.07794e-27
x2:vdd#branch                      5.32907e-15
vmeas_current_gnd#branch           3.44866e-05
vmeas_current_vdd#branch           3.44866e-05
v2#branch                         -3.44867e-05
x1:vctrl#branch                              0
x1:out#branch                     -8.07794e-27
x1:vss#branch                      3.44866e-05
x1:vdd#branch                     -3.44866e-05


No. of Data Rows : 7020

  Measurements for Transient Analysis

tvco_outside_while  =  3.396455e-10 targ=  1.843434e-08 trig=  1.809470e-08
fvco_outside_while  =  2.94425e+09
supply_current_rms_outside_while=   5.92151e-04 from=  1.00000e-08 to=  4.00000e-08
ground_current_rms_outside_while=   4.63428e-04 from=  1.00000e-08 to=  4.00000e-08
vctrl_avg_outside_while=  8.000000e-01 from=  1.000000e-08 to=  2.000500e-08
vhigh_outside_while =  1.928236e+00 at=  1.315500e-08
vlow_outside_while  =  -8.425124e-02 at=  1.161500e-08
peak_to_peak_outside_while=  2.01249e+00
supply_current_rms  =   5.58990e-04 from=  0.00000e+00 to=  7.00000e-08

binary raw file "3-stage_cs-vco_tb_WITH_APPENDWRITE.raw"
Reset re-loads circuit ** sch_path: /home/darunix/gitsandboxes/vco/vco/xschem/3-stage_cs-vco_tb.sch

Circuit: ** sch_path: /home/darunix/gitsandboxes/vco/vco/xschem/3-stage_cs-vco_tb.sch

option SCALE: Scale is set to 1e-06 for instance and model parameters
Doing analysis at TEMP = 27.000000 and TNOM = 27.000000

Warning: v1: no DC value, transient time 0 value used

Initial Transient Solution
--------------------------

Node                                   Voltage
----                                   -------
int_out_x1_3                       6.80528e-09
int_net1_x1_1                              1.8
int_net2_x1_2                                0
int_vctrl_x1_4                               0
net1                                       1.8
net2                                         0
out                                6.80528e-09
vctrl                                        0
vdd                                        1.8
int_vdd_x2_1                               1.8
int_out_x2_2                       6.80528e-09
int_gnd_x2_3                                 0
int_gnd_x3_2                                 0
int_out_x3_1                       6.80528e-09
int_gnd_x3_3                                 0
int_buf1_out_x3_6                  2.60627e-09
int_vdd_x3_5                               1.8
int_vdd_x3_4                               1.8
buf1_out                           2.60627e-09
int_buf1_out_x4_1                  2.60627e-09
int_vdd_x4_5                               1.8
int_vdd_x4_4                               1.8
int_gnd_x4_2                                 0
int_gnd_x4_3                                 0
int_net4_x4_6                       4.9501e-09
net4                                4.9501e-09
int_vdd_x5_5                               1.8
int_net5_x5_6                       4.9501e-09
int_vdd_x5_4                               1.8
int_net4_x5_1                       4.9501e-09
int_gnd_x5_2                                 0
int_gnd_x5_3                                 0
net5                                4.9501e-09
int_net3_x6_6                       4.9501e-09
int_gnd_x6_2                                 0
int_gnd_x6_3                                 0
int_net5_x6_1                       4.9501e-09
int_vdd_x6_5                               1.8
int_vdd_x6_4                               1.8
net3                                4.9501e-09
int_vdd_x7_5                               1.8
int_buf16_out_x7_6                  4.9501e-09
int_vdd_x7_4                               1.8
int_gnd_x7_2                                 0
int_gnd_x7_3                                 0
int_net3_x7_1                       4.9501e-09
buf16_out                           4.9501e-09
v1#branch                                    0
x7:x#branch                                  0
x7:vpwr#branch                    -8.17036e-12
x7:vpb#branch                     -4.15222e-11
x7:vnb#branch                       7.2401e-12
x7:vgnd#branch                     4.24513e-11
x7:a#branch                                  0
x6:x#branch                                  0
x6:vpwr#branch                    -4.08518e-12
x6:vpb#branch                     -2.07605e-11
x6:vnb#branch                      3.62005e-12
x6:vgnd#branch                     2.12257e-11
x6:a#branch                                  0
x5:x#branch                                  0
x5:vpwr#branch                    -2.04259e-12
x5:vpb#branch                     -1.03803e-11
x5:vnb#branch                      1.81003e-12
x5:vgnd#branch                     1.06128e-11
x5:a#branch                                  0
x4:x#branch                                  0
x4:vpwr#branch                     -1.9439e-12
x4:vpb#branch                     -5.19019e-12
x4:vnb#branch                      1.81003e-12
x4:vgnd#branch                     5.32401e-12
x4:a#branch                                  0
x3:x#branch                                  0
x3:vpwr#branch                    -2.01847e-12
x3:vpb#branch                     -1.80997e-12
x3:vnb#branch                      1.81009e-12
x3:vgnd#branch                     2.01837e-12
x3:a#branch                                  0
x2:vss#branch                    -2.44395e-222
x2:clk#branch                      8.07794e-27
x2:vdd#branch                      5.32907e-15
vmeas_current_gnd#branch           3.44866e-05
vmeas_current_vdd#branch           3.44866e-05
v2#branch                         -3.44867e-05
x1:vctrl#branch                              0
x1:out#branch                     -8.07794e-27
x1:vss#branch                      3.44866e-05
x1:vdd#branch                     -3.44866e-05


No. of Data Rows : 7020

  Measurements for Transient Analysis

tvco_outside_while  =  2.883517e-10 targ=  1.598556e-08 trig=  1.569721e-08
fvco_outside_while  =  3.46799e+09
supply_current_rms_outside_while=   3.95428e-04 from=  1.00000e-08 to=  4.00000e-08
ground_current_rms_outside_while=   3.96059e-04 from=  1.00000e-08 to=  4.00000e-08
vctrl_avg_outside_while=  9.000000e-01 from=  1.000000e-08 to=  2.000500e-08
vhigh_outside_while =  1.927415e+00 at=  1.293500e-08
vlow_outside_while  =  -8.202425e-02 at=  1.221500e-08
peak_to_peak_outside_while=  2.00944e+00
supply_current_rms  =   3.91226e-04 from=  0.00000e+00 to=  7.00000e-08

binary raw file "3-stage_cs-vco_tb_WITH_APPENDWRITE.raw"
Reset re-loads circuit ** sch_path: /home/darunix/gitsandboxes/vco/vco/xschem/3-stage_cs-vco_tb.sch

Circuit: ** sch_path: /home/darunix/gitsandboxes/vco/vco/xschem/3-stage_cs-vco_tb.sch

option SCALE: Scale is set to 1e-06 for instance and model parameters
Doing analysis at TEMP = 27.000000 and TNOM = 27.000000

Warning: v1: no DC value, transient time 0 value used

Initial Transient Solution
--------------------------

Node                                   Voltage
----                                   -------
int_out_x1_3                       6.80528e-09
int_net1_x1_1                              1.8
int_net2_x1_2                                0
int_vctrl_x1_4                               0
net1                                       1.8
net2                                         0
out                                6.80528e-09
vctrl                                        0
vdd                                        1.8
int_vdd_x2_1                               1.8
int_out_x2_2                       6.80528e-09
int_gnd_x2_3                                 0
int_gnd_x3_2                                 0
int_out_x3_1                       6.80528e-09
int_gnd_x3_3                                 0
int_buf1_out_x3_6                  2.60627e-09
int_vdd_x3_5                               1.8
int_vdd_x3_4                               1.8
buf1_out                           2.60627e-09
int_buf1_out_x4_1                  2.60627e-09
int_vdd_x4_5                               1.8
int_vdd_x4_4                               1.8
int_gnd_x4_2                                 0
int_gnd_x4_3                                 0
int_net4_x4_6                       4.9501e-09
net4                                4.9501e-09
int_vdd_x5_5                               1.8
int_net5_x5_6                       4.9501e-09
int_vdd_x5_4                               1.8
int_net4_x5_1                       4.9501e-09
int_gnd_x5_2                                 0
int_gnd_x5_3                                 0
net5                                4.9501e-09
int_net3_x6_6                       4.9501e-09
int_gnd_x6_2                                 0
int_gnd_x6_3                                 0
int_net5_x6_1                       4.9501e-09
int_vdd_x6_5                               1.8
int_vdd_x6_4                               1.8
net3                                4.9501e-09
int_vdd_x7_5                               1.8
int_buf16_out_x7_6                  4.9501e-09
int_vdd_x7_4                               1.8
int_gnd_x7_2                                 0
int_gnd_x7_3                                 0
int_net3_x7_1                       4.9501e-09
buf16_out                           4.9501e-09
v1#branch                                    0
x7:x#branch                                  0
x7:vpwr#branch                    -8.17036e-12
x7:vpb#branch                     -4.15222e-11
x7:vnb#branch                       7.2401e-12
x7:vgnd#branch                     4.24513e-11
x7:a#branch                                  0
x6:x#branch                                  0
x6:vpwr#branch                    -4.08518e-12
x6:vpb#branch                     -2.07605e-11
x6:vnb#branch                      3.62005e-12
x6:vgnd#branch                     2.12257e-11
x6:a#branch                                  0
x5:x#branch                                  0
x5:vpwr#branch                    -2.04259e-12
x5:vpb#branch                     -1.03803e-11
x5:vnb#branch                      1.81003e-12
x5:vgnd#branch                     1.06128e-11
x5:a#branch                                  0
x4:x#branch                                  0
x4:vpwr#branch                     -1.9439e-12
x4:vpb#branch                     -5.19019e-12
x4:vnb#branch                      1.81003e-12
x4:vgnd#branch                     5.32401e-12
x4:a#branch                                  0
x3:x#branch                                  0
x3:vpwr#branch                    -2.01847e-12
x3:vpb#branch                     -1.80997e-12
x3:vnb#branch                      1.81009e-12
x3:vgnd#branch                     2.01837e-12
x3:a#branch                                  0
x2:vss#branch                    -2.44395e-222
x2:clk#branch                      8.07794e-27
x2:vdd#branch                      5.32907e-15
vmeas_current_gnd#branch           3.44866e-05
vmeas_current_vdd#branch           3.44866e-05
v2#branch                         -3.44867e-05
x1:vctrl#branch                              0
x1:out#branch                     -8.07794e-27
x1:vss#branch                      3.44866e-05
x1:vdd#branch                     -3.44866e-05


No. of Data Rows : 7020

  Measurements for Transient Analysis

tvco_outside_while  =  2.749599e-10 targ=  1.535789e-08 trig=  1.508293e-08
fvco_outside_while  =  3.63689e+09
supply_current_rms_outside_while=   4.32936e-04 from=  1.00000e-08 to=  4.00000e-08
ground_current_rms_outside_while=   4.31686e-04 from=  1.00000e-08 to=  4.00000e-08
vctrl_avg_outside_while=  1.000000e+00 from=  1.000000e-08 to=  2.000500e-08
vhigh_outside_while =  1.925649e+00 at=  1.024500e-08
vlow_outside_while  =  -8.117005e-02 at=  1.038500e-08
peak_to_peak_outside_while=  2.00682e+00
supply_current_rms  =   4.27679e-04 from=  0.00000e+00 to=  7.00000e-08

binary raw file "3-stage_cs-vco_tb_WITH_APPENDWRITE.raw"
Reset re-loads circuit ** sch_path: /home/darunix/gitsandboxes/vco/vco/xschem/3-stage_cs-vco_tb.sch

Circuit: ** sch_path: /home/darunix/gitsandboxes/vco/vco/xschem/3-stage_cs-vco_tb.sch

option SCALE: Scale is set to 1e-06 for instance and model parameters
Doing analysis at TEMP = 27.000000 and TNOM = 27.000000

Warning: v1: no DC value, transient time 0 value used

Initial Transient Solution
--------------------------

Node                                   Voltage
----                                   -------
int_out_x1_3                       6.80528e-09
int_net1_x1_1                              1.8
int_net2_x1_2                                0
int_vctrl_x1_4                               0
net1                                       1.8
net2                                         0
out                                6.80528e-09
vctrl                                        0
vdd                                        1.8
int_vdd_x2_1                               1.8
int_out_x2_2                       6.80528e-09
int_gnd_x2_3                                 0
int_gnd_x3_2                                 0
int_out_x3_1                       6.80528e-09
int_gnd_x3_3                                 0
int_buf1_out_x3_6                  2.60627e-09
int_vdd_x3_5                               1.8
int_vdd_x3_4                               1.8
buf1_out                           2.60627e-09
int_buf1_out_x4_1                  2.60627e-09
int_vdd_x4_5                               1.8
int_vdd_x4_4                               1.8
int_gnd_x4_2                                 0
int_gnd_x4_3                                 0
int_net4_x4_6                       4.9501e-09
net4                                4.9501e-09
int_vdd_x5_5                               1.8
int_net5_x5_6                       4.9501e-09
int_vdd_x5_4                               1.8
int_net4_x5_1                       4.9501e-09
int_gnd_x5_2                                 0
int_gnd_x5_3                                 0
net5                                4.9501e-09
int_net3_x6_6                       4.9501e-09
int_gnd_x6_2                                 0
int_gnd_x6_3                                 0
int_net5_x6_1                       4.9501e-09
int_vdd_x6_5                               1.8
int_vdd_x6_4                               1.8
net3                                4.9501e-09
int_vdd_x7_5                               1.8
int_buf16_out_x7_6                  4.9501e-09
int_vdd_x7_4                               1.8
int_gnd_x7_2                                 0
int_gnd_x7_3                                 0
int_net3_x7_1                       4.9501e-09
buf16_out                           4.9501e-09
v1#branch                                    0
x7:x#branch                                  0
x7:vpwr#branch                    -8.17036e-12
x7:vpb#branch                     -4.15222e-11
x7:vnb#branch                       7.2401e-12
x7:vgnd#branch                     4.24513e-11
x7:a#branch                                  0
x6:x#branch                                  0
x6:vpwr#branch                    -4.08518e-12
x6:vpb#branch                     -2.07605e-11
x6:vnb#branch                      3.62005e-12
x6:vgnd#branch                     2.12257e-11
x6:a#branch                                  0
x5:x#branch                                  0
x5:vpwr#branch                    -2.04259e-12
x5:vpb#branch                     -1.03803e-11
x5:vnb#branch                      1.81003e-12
x5:vgnd#branch                     1.06128e-11
x5:a#branch                                  0
x4:x#branch                                  0
x4:vpwr#branch                     -1.9439e-12
x4:vpb#branch                     -5.19019e-12
x4:vnb#branch                      1.81003e-12
x4:vgnd#branch                     5.32401e-12
x4:a#branch                                  0
x3:x#branch                                  0
x3:vpwr#branch                    -2.01847e-12
x3:vpb#branch                     -1.80997e-12
x3:vnb#branch                      1.81009e-12
x3:vgnd#branch                     2.01837e-12
x3:a#branch                                  0
x2:vss#branch                    -2.44395e-222
x2:clk#branch                      8.07794e-27
x2:vdd#branch                      5.32907e-15
vmeas_current_gnd#branch           3.44866e-05
vmeas_current_vdd#branch           3.44866e-05
v2#branch                         -3.44867e-05
x1:vctrl#branch                              0
x1:out#branch                     -8.07794e-27
x1:vss#branch                      3.44866e-05
x1:vdd#branch                     -3.44866e-05


No. of Data Rows : 7020

  Measurements for Transient Analysis

tvco_outside_while  =  2.699945e-10 targ=  1.512048e-08 trig=  1.485049e-08
fvco_outside_while  =  3.70378e+09
supply_current_rms_outside_while=   4.63461e-04 from=  1.00000e-08 to=  4.00000e-08
ground_current_rms_outside_while=   4.61857e-04 from=  1.00000e-08 to=  4.00000e-08
vctrl_avg_outside_while=  1.100000e+00 from=  1.000000e-08 to=  2.000500e-08
vhigh_outside_while =  1.925520e+00 at=  1.981500e-08
vlow_outside_while  =  -8.056952e-02 at=  1.995500e-08
peak_to_peak_outside_while=  2.00609e+00
supply_current_rms  =   4.56556e-04 from=  0.00000e+00 to=  7.00000e-08

binary raw file "3-stage_cs-vco_tb_WITH_APPENDWRITE.raw"
Reset re-loads circuit ** sch_path: /home/darunix/gitsandboxes/vco/vco/xschem/3-stage_cs-vco_tb.sch

Circuit: ** sch_path: /home/darunix/gitsandboxes/vco/vco/xschem/3-stage_cs-vco_tb.sch

option SCALE: Scale is set to 1e-06 for instance and model parameters
Doing analysis at TEMP = 27.000000 and TNOM = 27.000000

Warning: v1: no DC value, transient time 0 value used

Initial Transient Solution
--------------------------

Node                                   Voltage
----                                   -------
int_out_x1_3                       6.80528e-09
int_net1_x1_1                              1.8
int_net2_x1_2                                0
int_vctrl_x1_4                               0
net1                                       1.8
net2                                         0
out                                6.80528e-09
vctrl                                        0
vdd                                        1.8
int_vdd_x2_1                               1.8
int_out_x2_2                       6.80528e-09
int_gnd_x2_3                                 0
int_gnd_x3_2                                 0
int_out_x3_1                       6.80528e-09
int_gnd_x3_3                                 0
int_buf1_out_x3_6                  2.60627e-09
int_vdd_x3_5                               1.8
int_vdd_x3_4                               1.8
buf1_out                           2.60627e-09
int_buf1_out_x4_1                  2.60627e-09
int_vdd_x4_5                               1.8
int_vdd_x4_4                               1.8
int_gnd_x4_2                                 0
int_gnd_x4_3                                 0
int_net4_x4_6                       4.9501e-09
net4                                4.9501e-09
int_vdd_x5_5                               1.8
int_net5_x5_6                       4.9501e-09
int_vdd_x5_4                               1.8
int_net4_x5_1                       4.9501e-09
int_gnd_x5_2                                 0
int_gnd_x5_3                                 0
net5                                4.9501e-09
int_net3_x6_6                       4.9501e-09
int_gnd_x6_2                                 0
int_gnd_x6_3                                 0
int_net5_x6_1                       4.9501e-09
int_vdd_x6_5                               1.8
int_vdd_x6_4                               1.8
net3                                4.9501e-09
int_vdd_x7_5                               1.8
int_buf16_out_x7_6                  4.9501e-09
int_vdd_x7_4                               1.8
int_gnd_x7_2                                 0
int_gnd_x7_3                                 0
int_net3_x7_1                       4.9501e-09
buf16_out                           4.9501e-09
v1#branch                                    0
x7:x#branch                                  0
x7:vpwr#branch                    -8.17036e-12
x7:vpb#branch                     -4.15222e-11
x7:vnb#branch                       7.2401e-12
x7:vgnd#branch                     4.24513e-11
x7:a#branch                                  0
x6:x#branch                                  0
x6:vpwr#branch                    -4.08518e-12
x6:vpb#branch                     -2.07605e-11
x6:vnb#branch                      3.62005e-12
x6:vgnd#branch                     2.12257e-11
x6:a#branch                                  0
x5:x#branch                                  0
x5:vpwr#branch                    -2.04259e-12
x5:vpb#branch                     -1.03803e-11
x5:vnb#branch                      1.81003e-12
x5:vgnd#branch                     1.06128e-11
x5:a#branch                                  0
x4:x#branch                                  0
x4:vpwr#branch                     -1.9439e-12
x4:vpb#branch                     -5.19019e-12
x4:vnb#branch                      1.81003e-12
x4:vgnd#branch                     5.32401e-12
x4:a#branch                                  0
x3:x#branch                                  0
x3:vpwr#branch                    -2.01847e-12
x3:vpb#branch                     -1.80997e-12
x3:vnb#branch                      1.81009e-12
x3:vgnd#branch                     2.01837e-12
x3:a#branch                                  0
x2:vss#branch                    -2.44395e-222
x2:clk#branch                      8.07794e-27
x2:vdd#branch                      5.32907e-15
vmeas_current_gnd#branch           3.44866e-05
vmeas_current_vdd#branch           3.44866e-05
v2#branch                         -3.44867e-05
x1:vctrl#branch                              0
x1:out#branch                     -8.07794e-27
x1:vss#branch                      3.44866e-05
x1:vdd#branch                     -3.44866e-05


No. of Data Rows : 7020

  Measurements for Transient Analysis

tvco_outside_while  =  2.677555e-10 targ=  1.500843e-08 trig=  1.474068e-08
fvco_outside_while  =  3.73475e+09
supply_current_rms_outside_while=   4.84555e-04 from=  1.00000e-08 to=  4.00000e-08
ground_current_rms_outside_while=   4.83551e-04 from=  1.00000e-08 to=  4.00000e-08
vctrl_avg_outside_while=  1.200000e+00 from=  1.000000e-08 to=  2.000500e-08
vhigh_outside_while =  1.925443e+00 at=  1.591500e-08
vlow_outside_while  =  -8.105041e-02 at=  1.150500e-08
peak_to_peak_outside_while=  2.00649e+00
supply_current_rms  =   4.78759e-04 from=  0.00000e+00 to=  7.00000e-08

binary raw file "3-stage_cs-vco_tb_WITH_APPENDWRITE.raw"
Reset re-loads circuit ** sch_path: /home/darunix/gitsandboxes/vco/vco/xschem/3-stage_cs-vco_tb.sch

Circuit: ** sch_path: /home/darunix/gitsandboxes/vco/vco/xschem/3-stage_cs-vco_tb.sch

option SCALE: Scale is set to 1e-06 for instance and model parameters
Doing analysis at TEMP = 27.000000 and TNOM = 27.000000

Warning: v1: no DC value, transient time 0 value used

Initial Transient Solution
--------------------------

Node                                   Voltage
----                                   -------
int_out_x1_3                       6.80528e-09
int_net1_x1_1                              1.8
int_net2_x1_2                                0
int_vctrl_x1_4                               0
net1                                       1.8
net2                                         0
out                                6.80528e-09
vctrl                                        0
vdd                                        1.8
int_vdd_x2_1                               1.8
int_out_x2_2                       6.80528e-09
int_gnd_x2_3                                 0
int_gnd_x3_2                                 0
int_out_x3_1                       6.80528e-09
int_gnd_x3_3                                 0
int_buf1_out_x3_6                  2.60627e-09
int_vdd_x3_5                               1.8
int_vdd_x3_4                               1.8
buf1_out                           2.60627e-09
int_buf1_out_x4_1                  2.60627e-09
int_vdd_x4_5                               1.8
int_vdd_x4_4                               1.8
int_gnd_x4_2                                 0
int_gnd_x4_3                                 0
int_net4_x4_6                       4.9501e-09
net4                                4.9501e-09
int_vdd_x5_5                               1.8
int_net5_x5_6                       4.9501e-09
int_vdd_x5_4                               1.8
int_net4_x5_1                       4.9501e-09
int_gnd_x5_2                                 0
int_gnd_x5_3                                 0
net5                                4.9501e-09
int_net3_x6_6                       4.9501e-09
int_gnd_x6_2                                 0
int_gnd_x6_3                                 0
int_net5_x6_1                       4.9501e-09
int_vdd_x6_5                               1.8
int_vdd_x6_4                               1.8
net3                                4.9501e-09
int_vdd_x7_5                               1.8
int_buf16_out_x7_6                  4.9501e-09
int_vdd_x7_4                               1.8
int_gnd_x7_2                                 0
int_gnd_x7_3                                 0
int_net3_x7_1                       4.9501e-09
buf16_out                           4.9501e-09
v1#branch                                    0
x7:x#branch                                  0
x7:vpwr#branch                    -8.17036e-12
x7:vpb#branch                     -4.15222e-11
x7:vnb#branch                       7.2401e-12
x7:vgnd#branch                     4.24513e-11
x7:a#branch                                  0
x6:x#branch                                  0
x6:vpwr#branch                    -4.08518e-12
x6:vpb#branch                     -2.07605e-11
x6:vnb#branch                      3.62005e-12
x6:vgnd#branch                     2.12257e-11
x6:a#branch                                  0
x5:x#branch                                  0
x5:vpwr#branch                    -2.04259e-12
x5:vpb#branch                     -1.03803e-11
x5:vnb#branch                      1.81003e-12
x5:vgnd#branch                     1.06128e-11
x5:a#branch                                  0
x4:x#branch                                  0
x4:vpwr#branch                     -1.9439e-12
x4:vpb#branch                     -5.19019e-12
x4:vnb#branch                      1.81003e-12
x4:vgnd#branch                     5.32401e-12
x4:a#branch                                  0
x3:x#branch                                  0
x3:vpwr#branch                    -2.01847e-12
x3:vpb#branch                     -1.80997e-12
x3:vnb#branch                      1.81009e-12
x3:vgnd#branch                     2.01837e-12
x3:a#branch                                  0
x2:vss#branch                    -2.44395e-222
x2:clk#branch                      8.07794e-27
x2:vdd#branch                      5.32907e-15
vmeas_current_gnd#branch           3.44866e-05
vmeas_current_vdd#branch           3.44866e-05
v2#branch                         -3.44867e-05
x1:vctrl#branch                              0
x1:out#branch                     -8.07794e-27
x1:vss#branch                      3.44866e-05
x1:vdd#branch                     -3.44866e-05


No. of Data Rows : 7020

  Measurements for Transient Analysis

tvco_outside_while  =  2.662862e-10 targ=  1.495283e-08 trig=  1.468654e-08
fvco_outside_while  =  3.75536e+09
supply_current_rms_outside_while=   4.96387e-04 from=  1.00000e-08 to=  4.00000e-08
ground_current_rms_outside_while=   4.95612e-04 from=  1.00000e-08 to=  4.00000e-08
vctrl_avg_outside_while=  1.300000e+00 from=  1.000000e-08 to=  2.000500e-08
vhigh_outside_while =  1.925321e+00 at=  1.132500e-08
vlow_outside_while  =  -8.091688e-02 at=  1.066500e-08
peak_to_peak_outside_while=  2.00624e+00
supply_current_rms  =   4.90214e-04 from=  0.00000e+00 to=  7.00000e-08

binary raw file "3-stage_cs-vco_tb_WITH_APPENDWRITE.raw"
Reset re-loads circuit ** sch_path: /home/darunix/gitsandboxes/vco/vco/xschem/3-stage_cs-vco_tb.sch

Circuit: ** sch_path: /home/darunix/gitsandboxes/vco/vco/xschem/3-stage_cs-vco_tb.sch

option SCALE: Scale is set to 1e-06 for instance and model parameters
Doing analysis at TEMP = 27.000000 and TNOM = 27.000000

Warning: v1: no DC value, transient time 0 value used

Initial Transient Solution
--------------------------

Node                                   Voltage
----                                   -------
int_out_x1_3                       6.80528e-09
int_net1_x1_1                              1.8
int_net2_x1_2                                0
int_vctrl_x1_4                               0
net1                                       1.8
net2                                         0
out                                6.80528e-09
vctrl                                        0
vdd                                        1.8
int_vdd_x2_1                               1.8
int_out_x2_2                       6.80528e-09
int_gnd_x2_3                                 0
int_gnd_x3_2                                 0
int_out_x3_1                       6.80528e-09
int_gnd_x3_3                                 0
int_buf1_out_x3_6                  2.60627e-09
int_vdd_x3_5                               1.8
int_vdd_x3_4                               1.8
buf1_out                           2.60627e-09
int_buf1_out_x4_1                  2.60627e-09
int_vdd_x4_5                               1.8
int_vdd_x4_4                               1.8
int_gnd_x4_2                                 0
int_gnd_x4_3                                 0
int_net4_x4_6                       4.9501e-09
net4                                4.9501e-09
int_vdd_x5_5                               1.8
int_net5_x5_6                       4.9501e-09
int_vdd_x5_4                               1.8
int_net4_x5_1                       4.9501e-09
int_gnd_x5_2                                 0
int_gnd_x5_3                                 0
net5                                4.9501e-09
int_net3_x6_6                       4.9501e-09
int_gnd_x6_2                                 0
int_gnd_x6_3                                 0
int_net5_x6_1                       4.9501e-09
int_vdd_x6_5                               1.8
int_vdd_x6_4                               1.8
net3                                4.9501e-09
int_vdd_x7_5                               1.8
int_buf16_out_x7_6                  4.9501e-09
int_vdd_x7_4                               1.8
int_gnd_x7_2                                 0
int_gnd_x7_3                                 0
int_net3_x7_1                       4.9501e-09
[...]
x7:vnb#branch                       7.2401e-12
x7:vgnd#branch                     4.24513e-11
x7:a#branch                                  0
x6:x#branch                                  0
x6:vpwr#branch                    -4.08518e-12
x6:vpb#branch                     -2.07605e-11
x6:vnb#branch                      3.62005e-12
x6:vgnd#branch                     2.12257e-11
x6:a#branch                                  0
x5:x#branch                                  0
x5:vpwr#branch                    -2.04259e-12
x5:vpb#branch                     -1.03803e-11
x5:vnb#branch                      1.81003e-12
x5:vgnd#branch                     1.06128e-11
x5:a#branch                                  0
x4:x#branch                                  0
x4:vpwr#branch                     -1.9439e-12
x4:vpb#branch                     -5.19019e-12
x4:vnb#branch                      1.81003e-12
x4:vgnd#branch                     5.32401e-12
x4:a#branch                                  0
x3:x#branch                                  0
x3:vpwr#branch                    -2.01847e-12
x3:vpb#branch                     -1.80997e-12
x3:vnb#branch                      1.81009e-12
x3:vgnd#branch                     2.01837e-12
x3:a#branch                                  0
x2:vss#branch                    -2.44395e-222
x2:clk#branch                      8.07794e-27
x2:vdd#branch                      5.32907e-15
vmeas_current_gnd#branch           3.44866e-05
vmeas_current_vdd#branch           3.44866e-05
v2#branch                         -3.44867e-05
x1:vctrl#branch                              0
x1:out#branch                     -8.07794e-27
x1:vss#branch                      3.44866e-05
x1:vdd#branch                     -3.44866e-05


No. of Data Rows : 7020

  Measurements for Transient Analysis

tvco_outside_while  =  2.655607e-10 targ=  1.489559e-08 trig=  1.463003e-08
fvco_outside_while  =  3.76562e+09
supply_current_rms_outside_while=   5.08546e-04 from=  1.00000e-08 to=  4.00000e-08
ground_current_rms_outside_while=   5.07243e-04 from=  1.00000e-08 to=  4.00000e-08
vctrl_avg_outside_while=  1.500000e+00 from=  1.000000e-08 to=  2.000500e-08
vhigh_outside_while =  1.925255e+00 at=  1.685500e-08
vlow_outside_while  =  -8.070855e-02 at=  1.805500e-08
peak_to_peak_outside_while=  2.00596e+00
supply_current_rms  =   5.02143e-04 from=  0.00000e+00 to=  7.00000e-08

binary raw file "3-stage_cs-vco_tb_WITH_APPENDWRITE.raw"
Reset re-loads circuit ** sch_path: /home/darunix/gitsandboxes/vco/vco/xschem/3-stage_cs-vco_tb.sch

Circuit: ** sch_path: /home/darunix/gitsandboxes/vco/vco/xschem/3-stage_cs-vco_tb.sch

option SCALE: Scale is set to 1e-06 for instance and model parameters
Doing analysis at TEMP = 27.000000 and TNOM = 27.000000

Warning: v1: no DC value, transient time 0 value used

Initial Transient Solution
--------------------------

Node                                   Voltage
----                                   -------
int_out_x1_3                       6.80528e-09
int_net1_x1_1                              1.8
int_net2_x1_2                                0
int_vctrl_x1_4                               0
net1                                       1.8
net2                                         0
out                                6.80528e-09
vctrl                                        0
vdd                                        1.8
int_vdd_x2_1                               1.8
int_out_x2_2                       6.80528e-09
int_gnd_x2_3                                 0
int_gnd_x3_2                                 0
int_out_x3_1                       6.80528e-09
int_gnd_x3_3                                 0
int_buf1_out_x3_6                  2.60627e-09
int_vdd_x3_5                               1.8
int_vdd_x3_4                               1.8
buf1_out                           2.60627e-09
int_buf1_out_x4_1                  2.60627e-09
int_vdd_x4_5                               1.8
int_vdd_x4_4                               1.8
int_gnd_x4_2                                 0
int_gnd_x4_3                                 0
int_net4_x4_6                       4.9501e-09
net4                                4.9501e-09
int_vdd_x5_5                               1.8
int_net5_x5_6                       4.9501e-09
int_vdd_x5_4                               1.8
int_net4_x5_1                       4.9501e-09
int_gnd_x5_2                                 0
int_gnd_x5_3                                 0
net5                                4.9501e-09
int_net3_x6_6                       4.9501e-09
int_gnd_x6_2                                 0
int_gnd_x6_3                                 0
int_net5_x6_1                       4.9501e-09
int_vdd_x6_5                               1.8
int_vdd_x6_4                               1.8
net3                                4.9501e-09
int_vdd_x7_5                               1.8
int_buf16_out_x7_6                  4.9501e-09
int_vdd_x7_4                               1.8
int_gnd_x7_2                                 0
int_gnd_x7_3                                 0
int_net3_x7_1                       4.9501e-09
buf16_out                           4.9501e-09
v1#branch                                    0
x7:x#branch                                  0
x7:vpwr#branch                    -8.17036e-12
x7:vpb#branch                     -4.15222e-11
x7:vnb#branch                       7.2401e-12
x7:vgnd#branch                     4.24513e-11
x7:a#branch                                  0
x6:x#branch                                  0
x6:vpwr#branch                    -4.08518e-12
x6:vpb#branch                     -2.07605e-11
x6:vnb#branch                      3.62005e-12
x6:vgnd#branch                     2.12257e-11
x6:a#branch                                  0
x5:x#branch                                  0
x5:vpwr#branch                    -2.04259e-12
x5:vpb#branch                     -1.03803e-11
x5:vnb#branch                      1.81003e-12
x5:vgnd#branch                     1.06128e-11
x5:a#branch                                  0
x4:x#branch                                  0
x4:vpwr#branch                     -1.9439e-12
x4:vpb#branch                     -5.19019e-12
x4:vnb#branch                      1.81003e-12
x4:vgnd#branch                     5.32401e-12
x4:a#branch                                  0
x3:x#branch                                  0
x3:vpwr#branch                    -2.01847e-12
x3:vpb#branch                     -1.80997e-12
x3:vnb#branch                      1.81009e-12
x3:vgnd#branch                     2.01837e-12
x3:a#branch                                  0
x2:vss#branch                    -2.44395e-222
x2:clk#branch                      8.07794e-27
x2:vdd#branch                      5.32907e-15
vmeas_current_gnd#branch           3.44866e-05
vmeas_current_vdd#branch           3.44866e-05
v2#branch                         -3.44867e-05
x1:vctrl#branch                              0
x1:out#branch                     -8.07794e-27
x1:vss#branch                      3.44866e-05
x1:vdd#branch                     -3.44866e-05


No. of Data Rows : 7020

  Measurements for Transient Analysis

tvco_outside_while  =  2.650126e-10 targ=  1.487817e-08 trig=  1.461316e-08
fvco_outside_while  =  3.77341e+09
supply_current_rms_outside_while=   5.11835e-04 from=  1.00000e-08 to=  4.00000e-08
ground_current_rms_outside_while=   5.10325e-04 from=  1.00000e-08 to=  4.00000e-08
vctrl_avg_outside_while=  1.600000e+00 from=  1.000000e-08 to=  2.000500e-08
vhigh_outside_while =  1.925237e+00 at=  1.736500e-08
vlow_outside_while  =  -8.066406e-02 at=  1.008500e-08
peak_to_peak_outside_while=  2.00590e+00
supply_current_rms  =   5.05735e-04 from=  0.00000e+00 to=  7.00000e-08

binary raw file "3-stage_cs-vco_tb_WITH_APPENDWRITE.raw"
Reset re-loads circuit ** sch_path: /home/darunix/gitsandboxes/vco/vco/xschem/3-stage_cs-vco_tb.sch

Circuit: ** sch_path: /home/darunix/gitsandboxes/vco/vco/xschem/3-stage_cs-vco_tb.sch

option SCALE: Scale is set to 1e-06 for instance and model parameters
Doing analysis at TEMP = 27.000000 and TNOM = 27.000000

Warning: v1: no DC value, transient time 0 value used

Initial Transient Solution
--------------------------

Node                                   Voltage
----                                   -------
int_out_x1_3                       6.80528e-09
int_net1_x1_1                              1.8
int_net2_x1_2                                0
int_vctrl_x1_4                               0
net1                                       1.8
net2                                         0
out                                6.80528e-09
vctrl                                        0
vdd                                        1.8
int_vdd_x2_1                               1.8
int_out_x2_2                       6.80528e-09
int_gnd_x2_3                                 0
int_gnd_x3_2                                 0
int_out_x3_1                       6.80528e-09
int_gnd_x3_3                                 0
int_buf1_out_x3_6                  2.60627e-09
int_vdd_x3_5                               1.8
int_vdd_x3_4                               1.8
buf1_out                           2.60627e-09
int_buf1_out_x4_1                  2.60627e-09
int_vdd_x4_5                               1.8
int_vdd_x4_4                               1.8
int_gnd_x4_2                                 0
int_gnd_x4_3                                 0
int_net4_x4_6                       4.9501e-09
net4                                4.9501e-09
int_vdd_x5_5                               1.8
int_net5_x5_6                       4.9501e-09
int_vdd_x5_4                               1.8
int_net4_x5_1                       4.9501e-09
int_gnd_x5_2                                 0
int_gnd_x5_3                                 0
net5                                4.9501e-09
int_net3_x6_6                       4.9501e-09
int_gnd_x6_2                                 0
int_gnd_x6_3                                 0
int_net5_x6_1                       4.9501e-09
int_vdd_x6_5                               1.8
int_vdd_x6_4                               1.8
net3                                4.9501e-09
int_vdd_x7_5                               1.8
int_buf16_out_x7_6                  4.9501e-09
int_vdd_x7_4                               1.8
int_gnd_x7_2                                 0
int_gnd_x7_3                                 0
int_net3_x7_1                       4.9501e-09
buf16_out                           4.9501e-09
v1#branch                                    0
x7:x#branch                                  0
x7:vpwr#branch                    -8.17036e-12
x7:vpb#branch                     -4.15222e-11
x7:vnb#branch                       7.2401e-12
x7:vgnd#branch                     4.24513e-11
x7:a#branch                                  0
x6:x#branch                                  0
x6:vpwr#branch                    -4.08518e-12
x6:vpb#branch                     -2.07605e-11
x6:vnb#branch                      3.62005e-12
x6:vgnd#branch                     2.12257e-11
x6:a#branch                                  0
x5:x#branch                                  0
x5:vpwr#branch                    -2.04259e-12
x5:vpb#branch                     -1.03803e-11
x5:vnb#branch                      1.81003e-12
x5:vgnd#branch                     1.06128e-11
x5:a#branch                                  0
x4:x#branch                                  0
x4:vpwr#branch                     -1.9439e-12
x4:vpb#branch                     -5.19019e-12
x4:vnb#branch                      1.81003e-12
x4:vgnd#branch                     5.32401e-12
x4:a#branch                                  0
x3:x#branch                                  0
x3:vpwr#branch                    -2.01847e-12
x3:vpb#branch                     -1.80997e-12
x3:vnb#branch                      1.81009e-12
x3:vgnd#branch                     2.01837e-12
x3:a#branch                                  0
x2:vss#branch                    -2.44395e-222
x2:clk#branch                      8.07794e-27
x2:vdd#branch                      5.32907e-15
vmeas_current_gnd#branch           3.44866e-05
vmeas_current_vdd#branch           3.44866e-05
v2#branch                         -3.44867e-05
x1:vctrl#branch                              0
x1:out#branch                     -8.07794e-27
x1:vss#branch                      3.44866e-05
x1:vdd#branch                     -3.44866e-05


No. of Data Rows : 7020

  Measurements for Transient Analysis

tvco_outside_while  =  2.649621e-10 targ=  1.486547e-08 trig=  1.460051e-08
fvco_outside_while  =  3.77413e+09
supply_current_rms_outside_while=   5.14554e-04 from=  1.00000e-08 to=  4.00000e-08
ground_current_rms_outside_while=   5.13014e-04 from=  1.00000e-08 to=  4.00000e-08
vctrl_avg_outside_while=  1.700000e+00 from=  1.000000e-08 to=  2.000500e-08
vhigh_outside_while =  1.925224e+00 at=  1.708500e-08
vlow_outside_while  =  -8.061056e-02 at=  1.563500e-08
peak_to_peak_outside_while=  2.00583e+00
supply_current_rms  =   5.08324e-04 from=  0.00000e+00 to=  7.00000e-08

binary raw file "3-stage_cs-vco_tb_WITH_APPENDWRITE.raw"
Reset re-loads circuit ** sch_path: /home/darunix/gitsandboxes/vco/vco/xschem/3-stage_cs-vco_tb.sch

Circuit: ** sch_path: /home/darunix/gitsandboxes/vco/vco/xschem/3-stage_cs-vco_tb.sch

option SCALE: Scale is set to 1e-06 for instance and model parameters
Doing analysis at TEMP = 27.000000 and TNOM = 27.000000

Warning: v1: no DC value, transient time 0 value used

Initial Transient Solution
--------------------------

Node                                   Voltage
----                                   -------
int_out_x1_3                       6.80528e-09
int_net1_x1_1                              1.8
int_net2_x1_2                                0
int_vctrl_x1_4                               0
net1                                       1.8
net2                                         0
out                                6.80528e-09
vctrl                                        0
vdd                                        1.8
int_vdd_x2_1                               1.8
int_out_x2_2                       6.80528e-09
int_gnd_x2_3                                 0
int_gnd_x3_2                                 0
int_out_x3_1                       6.80528e-09
int_gnd_x3_3                                 0
int_buf1_out_x3_6                  2.60627e-09
int_vdd_x3_5                               1.8
int_vdd_x3_4                               1.8
buf1_out                           2.60627e-09
int_buf1_out_x4_1                  2.60627e-09
int_vdd_x4_5                               1.8
int_vdd_x4_4                               1.8
int_gnd_x4_2                                 0
int_gnd_x4_3                                 0
int_net4_x4_6                       4.9501e-09
net4                                4.9501e-09
int_vdd_x5_5                               1.8
int_net5_x5_6                       4.9501e-09
int_vdd_x5_4                               1.8
int_net4_x5_1                       4.9501e-09
int_gnd_x5_2                                 0
int_gnd_x5_3                                 0
net5                                4.9501e-09
int_net3_x6_6                       4.9501e-09
int_gnd_x6_2                                 0
int_gnd_x6_3                                 0
int_net5_x6_1                       4.9501e-09
int_vdd_x6_5                               1.8
int_vdd_x6_4                               1.8
net3                                4.9501e-09
int_vdd_x7_5                               1.8
int_buf16_out_x7_6                  4.9501e-09
int_vdd_x7_4                               1.8
int_gnd_x7_2                                 0
int_gnd_x7_3                                 0
int_net3_x7_1                       4.9501e-09
buf16_out                           4.9501e-09
v1#branch                                    0
x7:x#branch                                  0
x7:vpwr#branch                    -8.17036e-12
x7:vpb#branch                     -4.15222e-11
x7:vnb#branch                       7.2401e-12
x7:vgnd#branch                     4.24513e-11
x7:a#branch                                  0
x6:x#branch                                  0
x6:vpwr#branch                    -4.08518e-12
x6:vpb#branch                     -2.07605e-11
x6:vnb#branch                      3.62005e-12
x6:vgnd#branch                     2.12257e-11
x6:a#branch                                  0
x5:x#branch                                  0
x5:vpwr#branch                    -2.04259e-12
x5:vpb#branch                     -1.03803e-11
x5:vnb#branch                      1.81003e-12
x5:vgnd#branch                     1.06128e-11
x5:a#branch                                  0
x4:x#branch                                  0
x4:vpwr#branch                     -1.9439e-12
x4:vpb#branch                     -5.19019e-12
x4:vnb#branch                      1.81003e-12
x4:vgnd#branch                     5.32401e-12
x4:a#branch                                  0
x3:x#branch                                  0
x3:vpwr#branch                    -2.01847e-12
x3:vpb#branch                     -1.80997e-12
x3:vnb#branch                      1.81009e-12
x3:vgnd#branch                     2.01837e-12
x3:a#branch                                  0
x2:vss#branch                    -2.44395e-222
x2:clk#branch                      8.07794e-27
x2:vdd#branch                      5.32907e-15
vmeas_current_gnd#branch           3.44866e-05
vmeas_current_vdd#branch           3.44866e-05
v2#branch                         -3.44867e-05
x1:vctrl#branch                              0
x1:out#branch                     -8.07794e-27
x1:vss#branch                      3.44866e-05
x1:vdd#branch                     -3.44866e-05


No. of Data Rows : 7020

  Measurements for Transient Analysis

tvco_outside_while  =  2.647641e-10 targ=  1.485531e-08 trig=  1.459055e-08
fvco_outside_while  =  3.77695e+09
supply_current_rms_outside_while=   5.17083e-04 from=  1.00000e-08 to=  4.00000e-08
ground_current_rms_outside_while=   5.15132e-04 from=  1.00000e-08 to=  4.00000e-08
vctrl_avg_outside_while=  1.800000e+00 from=  1.000000e-08 to=  2.000500e-08
vhigh_outside_while =  1.925208e+00 at=  1.363500e-08
vlow_outside_while  =  -8.057643e-02 at=  1.271500e-08
peak_to_peak_outside_while=  2.00578e+00
supply_current_rms  =   5.10305e-04 from=  0.00000e+00 to=  7.00000e-08

binary raw file "3-stage_cs-vco_tb_WITH_APPENDWRITE.raw"
Doing analysis at TEMP = 27.000000 and TNOM = 27.000000

Warning: v1: no DC value, transient time 0 value used

  Measurements for Transient Analysis

tvco_outside_while  =  2.647641e-10 targ=  1.485531e-08 trig=  1.459055e-08
Original line no.: 0, new internal line no.: 12503:
insertnumber: fails.
  s = ".meas tran fvco_outside_while param=    3.776946639089947e+09   " u="  3.776946639089947e+09  " id=0
fvco_outside_while  =  3.77695e+09
supply_current_rms_outside_while=   5.17083e-04 from=  1.00000e-08 to=  4.00000e-08
ground_current_rms_outside_while=   5.15132e-04 from=  1.00000e-08 to=  4.00000e-08
vctrl_avg_outside_while=  1.800000e+00 from=  1.000000e-08 to=  2.000500e-08
vhigh_outside_while =  1.925208e+00 at=  1.363500e-08
vlow_outside_while  =  -8.057643e-02 at=  1.271500e-08
Original line no.: 0, new internal line no.: 12509:
insertnumber: fails.
  s = ".meas tran peak_to_peak_outside_while param=    2.005784323259211e+00   " u="  2.005784323259211e+00  " id=0
peak_to_peak_outside_while=  2.00578e+00
supply_current_rms  =   5.10305e-04 from=  0.00000e+00 to=  7.00000e-08


Total analysis time (seconds) = 7.31221

Total CPU time (seconds) = 167.869 

Total DRAM available = 7955.125 MB.
DRAM currently available = 1136.219 MB.
Maximum ngspice program size =  684.684 MB.
Current ngspice program size =  665.363 MB.

Shared ngspice pages =    8.391 MB.
Text (code) pages =    7.879 MB.
Stack = 0 bytes.
Library pages =  657.203 MB.

