
Compatibility modes selected: hs a

Warning: m=xx on .subckt line will override multiplier m hierarchy!


Circuit: ** sch_path: /home/darunix/gitsandboxes/vco/vco/xschem/3-stage_cs-vco_tb.sch

option SCALE: Scale is set to 1e-06 for instance and model parameters
Reset re-loads circuit ** sch_path: /home/darunix/gitsandboxes/vco/vco/xschem/3-stage_cs-vco_tb.sch

Circuit: ** sch_path: /home/darunix/gitsandboxes/vco/vco/xschem/3-stage_cs-vco_tb.sch

option SCALE: Scale is set to 1e-06 for instance and model parameters
Reset re-loads circuit ** sch_path: /home/darunix/gitsandboxes/vco/vco/xschem/3-stage_cs-vco_tb.sch

Circuit: ** sch_path: /home/darunix/gitsandboxes/vco/vco/xschem/3-stage_cs-vco_tb.sch

option SCALE: Scale is set to 1e-06 for instance and model parameters
Doing analysis at TEMP = 27.000000 and TNOM = 27.000000

Warning: v1: no DC value, transient time 0 value used

Initial Transient Solution
--------------------------

Node                                   Voltage
----                                   -------
int_out_x1_3                       6.80528e-09
int_net1_x1_1                              1.8
int_net2_x1_2                                0
int_vctrl_x1_4                               0
net1                                       1.8
net2                                         0
out                                6.80528e-09
vctrl                                        0
vdd                                        1.8
int_vdd_x2_1                               1.8
int_out_x2_2                       6.80528e-09
int_gnd_x2_3                                 0
int_gnd_x3_2                                 0
int_out_x3_1                       6.80528e-09
int_gnd_x3_3                                 0
int_buf1_out_x3_6                  2.60627e-09
int_vdd_x3_5                               1.8
int_vdd_x3_4                               1.8
buf1_out                           2.60627e-09
int_buf1_out_x4_1                  2.60627e-09
int_vdd_x4_5                               1.8
int_vdd_x4_4                               1.8
int_gnd_x4_2                                 0
int_gnd_x4_3                                 0
int_net4_x4_6                       4.9501e-09
net4                                4.9501e-09
int_vdd_x5_5                               1.8
int_net5_x5_6                       4.9501e-09
int_vdd_x5_4                               1.8
int_net4_x5_1                       4.9501e-09
int_gnd_x5_2                                 0
int_gnd_x5_3                                 0
net5                                4.9501e-09
int_net3_x6_6                       4.9501e-09
int_gnd_x6_2                                 0
int_gnd_x6_3                                 0
int_net5_x6_1                       4.9501e-09
int_vdd_x6_5                               1.8
int_vdd_x6_4                               1.8
net3                                4.9501e-09
int_vdd_x7_5                               1.8
int_buf16_out_x7_6                  4.9501e-09
int_vdd_x7_4                               1.8
int_gnd_x7_2                                 0
int_gnd_x7_3                                 0
int_net3_x7_1                       4.9501e-09
buf16_out                           4.9501e-09
v1#branch                                    0
x7:x#branch                                  0
x7:vpwr#branch                    -8.17036e-12
x7:vpb#branch                     -4.15221e-11
x7:vnb#branch                       7.2401e-12
x7:vgnd#branch                     4.24513e-11
x7:a#branch                                  0
x6:x#branch                                  0
x6:vpwr#branch                    -4.08518e-12
x6:vpb#branch                     -2.07608e-11
x6:vnb#branch                      3.62005e-12
x6:vgnd#branch                     2.12257e-11
x6:a#branch                                  0
x5:x#branch                                  0
x5:vpwr#branch                    -2.04259e-12
x5:vpb#branch                     -1.03803e-11
x5:vnb#branch                      1.81003e-12
x5:vgnd#branch                     1.06128e-11
x5:a#branch                                  0
x4:x#branch                                  0
x4:vpwr#branch                     -1.9439e-12
x4:vpb#branch                      -5.1902e-12
x4:vnb#branch                      1.81003e-12
x4:vgnd#branch                     5.32401e-12
x4:a#branch                                  0
x3:x#branch                                  0
x3:vpwr#branch                    -2.01847e-12
x3:vpb#branch                     -1.80997e-12
x3:vnb#branch                      1.81009e-12
x3:vgnd#branch                     2.01837e-12
x3:a#branch                                  0
x2:vss#branch                    -4.56262e-210
x2:clk#branch                                0
x2:vdd#branch                      4.96131e-15
vmeas_current_gnd#branch           3.41127e-05
vmeas_current_vdd#branch           3.41127e-05
v2#branch                         -3.41128e-05
x1:vctrl#branch                              0
x1:out#branch                                0
x1:vss#branch                      3.41127e-05
x1:vdd#branch                     -3.41127e-05


No. of Data Rows : 7020

  Measurements for Transient Analysis


Error: measure  tvco_outside_while  (TRIG) : out of interval
 .meas tran tvco_outside_while trig v(out) val=0.5*1.8 rise=50 targ v(out) val=0.5*1.8 rise=51 failed!

Original line no.: 0, new internal line no.: 12503:
Undefined number [tvco_outside_while]
Original line no.: 0, new internal line no.: 12503:
Cannot compute substitute
fvco_outside_while  =   failed
supply_current_rms_outside_while=   1.82703e-05 from=  1.00000e-08 to=  4.00000e-08
ground_current_rms_outside_while=   1.32034e-05 from=  1.00000e-08 to=  4.00000e-08
vctrl_avg_outside_while=  0.000000e+00 from=  1.000000e-08 to=  2.000500e-08
vhigh_outside_while =  6.069309e-06 at=  1.000500e-08
vlow_outside_while  =  -6.047239e-06 at=  1.001500e-08
peak_to_peak_outside_while=  1.21165e-05
supply_current_rms  =   5.31205e-05 from=  0.00000e+00 to=  7.00000e-08

binary raw file "3-stage_cs-vco_tb_WITH_APPENDWRITE.raw"
Reset re-loads circuit ** sch_path: /home/darunix/gitsandboxes/vco/vco/xschem/3-stage_cs-vco_tb.sch

Circuit: ** sch_path: /home/darunix/gitsandboxes/vco/vco/xschem/3-stage_cs-vco_tb.sch

option SCALE: Scale is set to 1e-06 for instance and model parameters
Doing analysis at TEMP = 27.000000 and TNOM = 27.000000

Warning: v1: no DC value, transient time 0 value used

Initial Transient Solution
--------------------------

Node                                   Voltage
----                                   -------
int_out_x1_3                       6.80528e-09
int_net1_x1_1                              1.8
int_net2_x1_2                                0
int_vctrl_x1_4                               0
net1                                       1.8
net2                                         0
out                                6.80528e-09
vctrl                                        0
vdd                                        1.8
int_vdd_x2_1                               1.8
int_out_x2_2                       6.80528e-09
int_gnd_x2_3                                 0
int_gnd_x3_2                                 0
int_out_x3_1                       6.80528e-09
int_gnd_x3_3                                 0
int_buf1_out_x3_6                  2.60627e-09
int_vdd_x3_5                               1.8
int_vdd_x3_4                               1.8
buf1_out                           2.60627e-09
int_buf1_out_x4_1                  2.60627e-09
int_vdd_x4_5                               1.8
int_vdd_x4_4                               1.8
int_gnd_x4_2                                 0
int_gnd_x4_3                                 0
int_net4_x4_6                       4.9501e-09
net4                                4.9501e-09
int_vdd_x5_5                               1.8
int_net5_x5_6                       4.9501e-09
int_vdd_x5_4                               1.8
int_net4_x5_1                       4.9501e-09
int_gnd_x5_2                                 0
int_gnd_x5_3                                 0
net5                                4.9501e-09
int_net3_x6_6                       4.9501e-09
int_gnd_x6_2                                 0
int_gnd_x6_3                                 0
int_net5_x6_1                       4.9501e-09
int_vdd_x6_5                               1.8
int_vdd_x6_4                               1.8
net3                                4.9501e-09
int_vdd_x7_5                               1.8
int_buf16_out_x7_6                  4.9501e-09
int_vdd_x7_4                               1.8
int_gnd_x7_2                                 0
int_gnd_x7_3                                 0
int_net3_x7_1                       4.9501e-09
buf16_out                           4.9501e-09
v1#branch                                    0
x7:x#branch                                  0
x7:vpwr#branch                    -8.17036e-12
x7:vpb#branch                     -4.15221e-11
x7:vnb#branch                       7.2401e-12
x7:vgnd#branch                     4.24513e-11
x7:a#branch                                  0
x6:x#branch                                  0
x6:vpwr#branch                    -4.08518e-12
x6:vpb#branch                     -2.07608e-11
x6:vnb#branch                      3.62005e-12
x6:vgnd#branch                     2.12257e-11
x6:a#branch                                  0
x5:x#branch                                  0
x5:vpwr#branch                    -2.04259e-12
x5:vpb#branch                     -1.03803e-11
x5:vnb#branch                      1.81003e-12
x5:vgnd#branch                     1.06128e-11
x5:a#branch                                  0
x4:x#branch                                  0
x4:vpwr#branch                     -1.9439e-12
x4:vpb#branch                      -5.1902e-12
x4:vnb#branch                      1.81003e-12
x4:vgnd#branch                     5.32401e-12
x4:a#branch                                  0
x3:x#branch                                  0
x3:vpwr#branch                    -2.01847e-12
x3:vpb#branch                     -1.80997e-12
x3:vnb#branch                      1.81009e-12
x3:vgnd#branch                     2.01837e-12
x3:a#branch                                  0
x2:vss#branch                    -4.56262e-210
x2:clk#branch                                0
x2:vdd#branch                      4.96131e-15
vmeas_current_gnd#branch           3.41127e-05
vmeas_current_vdd#branch           3.41127e-05
v2#branch                         -3.41128e-05
x1:vctrl#branch                              0
x1:out#branch                                0
x1:vss#branch                      3.41127e-05
x1:vdd#branch                     -3.41127e-05


No. of Data Rows : 7020

  Measurements for Transient Analysis


Error: measure  tvco_outside_while  (TRIG) : out of interval
 .meas tran tvco_outside_while trig v(out) val=0.5*1.8 rise=50 targ v(out) val=0.5*1.8 rise=51 failed!

Original line no.: 0, new internal line no.: 12503:
Undefined number [tvco_outside_while]
Original line no.: 0, new internal line no.: 12503:
Cannot compute substitute
fvco_outside_while  =   failed
supply_current_rms_outside_while=   1.24525e-05 from=  1.00000e-08 to=  4.00000e-08
ground_current_rms_outside_while=   9.08057e-06 from=  1.00000e-08 to=  4.00000e-08
vctrl_avg_outside_while=  1.000000e-01 from=  1.000000e-08 to=  2.000500e-08
vhigh_outside_while =  1.392334e-07 at=  1.000500e-08
vlow_outside_while  =  -1.217968e-07 at=  1.998500e-08
peak_to_peak_outside_while=  2.61030e-07
supply_current_rms  =   5.10645e-05 from=  0.00000e+00 to=  7.00000e-08

binary raw file "3-stage_cs-vco_tb_WITH_APPENDWRITE.raw"
Reset re-loads circuit ** sch_path: /home/darunix/gitsandboxes/vco/vco/xschem/3-stage_cs-vco_tb.sch

Circuit: ** sch_path: /home/darunix/gitsandboxes/vco/vco/xschem/3-stage_cs-vco_tb.sch

option SCALE: Scale is set to 1e-06 for instance and model parameters
Doing analysis at TEMP = 27.000000 and TNOM = 27.000000

Warning: v1: no DC value, transient time 0 value used

Initial Transient Solution
--------------------------

Node                                   Voltage
----                                   -------
int_out_x1_3                       6.80528e-09
int_net1_x1_1                              1.8
int_net2_x1_2                                0
int_vctrl_x1_4                               0
net1                                       1.8
net2                                         0
out                                6.80528e-09
vctrl                                        0
vdd                                        1.8
int_vdd_x2_1                               1.8
int_out_x2_2                       6.80528e-09
int_gnd_x2_3                                 0
int_gnd_x3_2                                 0
int_out_x3_1                       6.80528e-09
int_gnd_x3_3                                 0
int_buf1_out_x3_6                  2.60627e-09
int_vdd_x3_5                               1.8
int_vdd_x3_4                               1.8
buf1_out                           2.60627e-09
int_buf1_out_x4_1                  2.60627e-09
int_vdd_x4_5                               1.8
int_vdd_x4_4                               1.8
int_gnd_x4_2                                 0
int_gnd_x4_3                                 0
int_net4_x4_6                       4.9501e-09
net4                                4.9501e-09
int_vdd_x5_5                               1.8
int_net5_x5_6                       4.9501e-09
int_vdd_x5_4                               1.8
int_net4_x5_1                       4.9501e-09
int_gnd_x5_2                                 0
int_gnd_x5_3                                 0
net5                                4.9501e-09
int_net3_x6_6                       4.9501e-09
int_gnd_x6_2                                 0
int_gnd_x6_3                                 0
int_net5_x6_1                       4.9501e-09
int_vdd_x6_5                               1.8
int_vdd_x6_4                               1.8
net3                                4.9501e-09
int_vdd_x7_5                               1.8
int_buf16_out_x7_6                  4.9501e-09
int_vdd_x7_4                               1.8
int_gnd_x7_2                                 0
int_gnd_x7_3                                 0
int_net3_x7_1                       4.9501e-09
buf16_out                           4.9501e-09
v1#branch                                    0
x7:x#branch                                  0
x7:vpwr#branch                    -8.17036e-12
x7:vpb#branch                     -4.15221e-11
x7:vnb#branch                       7.2401e-12
x7:vgnd#branch                     4.24513e-11
x7:a#branch                                  0
x6:x#branch                                  0
x6:vpwr#branch                    -4.08518e-12
x6:vpb#branch                     -2.07608e-11
x6:vnb#branch                      3.62005e-12
x6:vgnd#branch                     2.12257e-11
x6:a#branch                                  0
x5:x#branch                                  0
x5:vpwr#branch                    -2.04259e-12
x5:vpb#branch                     -1.03803e-11
x5:vnb#branch                      1.81003e-12
x5:vgnd#branch                     1.06128e-11
x5:a#branch                                  0
x4:x#branch                                  0
x4:vpwr#branch                     -1.9439e-12
x4:vpb#branch                      -5.1902e-12
x4:vnb#branch                      1.81003e-12
x4:vgnd#branch                     5.32401e-12
x4:a#branch                                  0
x3:x#branch                                  0
x3:vpwr#branch                    -2.01847e-12
x3:vpb#branch                     -1.80997e-12
x3:vnb#branch                      1.81009e-12
x3:vgnd#branch                     2.01837e-12
x3:a#branch                                  0
x2:vss#branch                    -4.56262e-210
x2:clk#branch                                0
x2:vdd#branch                      4.96131e-15
vmeas_current_gnd#branch           3.41127e-05
vmeas_current_vdd#branch           3.41127e-05
v2#branch                         -3.41128e-05
x1:vctrl#branch                              0
x1:out#branch                                0
x1:vss#branch                      3.41127e-05
x1:vdd#branch                     -3.41127e-05


No. of Data Rows : 7020

  Measurements for Transient Analysis


Error: measure  tvco_outside_while  (TRIG) : out of interval
 .meas tran tvco_outside_while trig v(out) val=0.5*1.8 rise=50 targ v(out) val=0.5*1.8 rise=51 failed!

Original line no.: 0, new internal line no.: 12503:
Undefined number [tvco_outside_while]
Original line no.: 0, new internal line no.: 12503:
Cannot compute substitute
fvco_outside_while  =   failed
supply_current_rms_outside_while=   2.06262e-05 from=  1.00000e-08 to=  4.00000e-08
ground_current_rms_outside_while=   3.19881e-05 from=  1.00000e-08 to=  4.00000e-08
vctrl_avg_outside_while=  2.000000e-01 from=  1.000000e-08 to=  2.000500e-08
vhigh_outside_while =  5.055944e-06 at=  1.000500e-08
vlow_outside_while  =  -5.032939e-06 at=  1.001500e-08
peak_to_peak_outside_while=  1.00889e-05
supply_current_rms  =   5.33067e-05 from=  0.00000e+00 to=  7.00000e-08

binary raw file "3-stage_cs-vco_tb_WITH_APPENDWRITE.raw"
Reset re-loads circuit ** sch_path: /home/darunix/gitsandboxes/vco/vco/xschem/3-stage_cs-vco_tb.sch

Circuit: ** sch_path: /home/darunix/gitsandboxes/vco/vco/xschem/3-stage_cs-vco_tb.sch

option SCALE: Scale is set to 1e-06 for instance and model parameters
Doing analysis at TEMP = 27.000000 and TNOM = 27.000000

Warning: v1: no DC value, transient time 0 value used

Initial Transient Solution
--------------------------

Node                                   Voltage
----                                   -------
int_out_x1_3                       6.80528e-09
int_net1_x1_1                              1.8
int_net2_x1_2                                0
int_vctrl_x1_4                               0
net1                                       1.8
net2                                         0
out                                6.80528e-09
vctrl                                        0
vdd                                        1.8
int_vdd_x2_1                               1.8
int_out_x2_2                       6.80528e-09
int_gnd_x2_3                                 0
int_gnd_x3_2                                 0
int_out_x3_1                       6.80528e-09
int_gnd_x3_3                                 0
int_buf1_out_x3_6                  2.60627e-09
int_vdd_x3_5                               1.8
int_vdd_x3_4                               1.8
buf1_out                           2.60627e-09
int_buf1_out_x4_1                  2.60627e-09
int_vdd_x4_5                               1.8
int_vdd_x4_4                               1.8
int_gnd_x4_2                                 0
int_gnd_x4_3                                 0
int_net4_x4_6                       4.9501e-09
net4                                4.9501e-09
int_vdd_x5_5                               1.8
int_net5_x5_6                       4.9501e-09
int_vdd_x5_4                               1.8
int_net4_x5_1                       4.9501e-09
int_gnd_x5_2                                 0
int_gnd_x5_3                                 0
net5                                4.9501e-09
int_net3_x6_6                       4.9501e-09
int_gnd_x6_2                                 0
int_gnd_x6_3                                 0
int_net5_x6_1                       4.9501e-09
int_vdd_x6_5                               1.8
int_vdd_x6_4                               1.8
net3                                4.9501e-09
int_vdd_x7_5                               1.8
int_buf16_out_x7_6                  4.9501e-09
int_vdd_x7_4                               1.8
int_gnd_x7_2                                 0
int_gnd_x7_3                                 0
int_net3_x7_1                       4.9501e-09
buf16_out                           4.9501e-09
v1#branch                                    0
x7:x#branch                                  0
x7:vpwr#branch                    -8.17036e-12
x7:vpb#branch                     -4.15221e-11
x7:vnb#branch                       7.2401e-12
x7:vgnd#branch                     4.24513e-11
x7:a#branch                                  0
x6:x#branch                                  0
x6:vpwr#branch                    -4.08518e-12
x6:vpb#branch                     -2.07608e-11
x6:vnb#branch                      3.62005e-12
x6:vgnd#branch                     2.12257e-11
x6:a#branch                                  0
x5:x#branch                                  0
x5:vpwr#branch                    -2.04259e-12
x5:vpb#branch                     -1.03803e-11
x5:vnb#branch                      1.81003e-12
x5:vgnd#branch                     1.06128e-11
x5:a#branch                                  0
x4:x#branch                                  0
x4:vpwr#branch                     -1.9439e-12
x4:vpb#branch                      -5.1902e-12
x4:vnb#branch                      1.81003e-12
x4:vgnd#branch                     5.32401e-12
x4:a#branch                                  0
x3:x#branch                                  0
x3:vpwr#branch                    -2.01847e-12
x3:vpb#branch                     -1.80997e-12
x3:vnb#branch                      1.81009e-12
x3:vgnd#branch                     2.01837e-12
x3:a#branch                                  0
x2:vss#branch                    -4.56262e-210
x2:clk#branch                                0
x2:vdd#branch                      4.96131e-15
vmeas_current_gnd#branch           3.41127e-05
vmeas_current_vdd#branch           3.41127e-05
v2#branch                         -3.41128e-05
x1:vctrl#branch                              0
x1:out#branch                                0
x1:vss#branch                      3.41127e-05
x1:vdd#branch                     -3.41127e-05


No. of Data Rows : 7020

  Measurements for Transient Analysis


Error: measure  tvco_outside_while  (TRIG) : out of interval
 .meas tran tvco_outside_while trig v(out) val=0.5*1.8 rise=50 targ v(out) val=0.5*1.8 rise=51 failed!

Original line no.: 0, new internal line no.: 12503:
Undefined number [tvco_outside_while]
Original line no.: 0, new internal line no.: 12503:
Cannot compute substitute
fvco_outside_while  =   failed
supply_current_rms_outside_while=   3.51097e-05 from=  1.00000e-08 to=  4.00000e-08
ground_current_rms_outside_while=   1.33524e-05 from=  1.00000e-08 to=  4.00000e-08
vctrl_avg_outside_while=  3.000000e-01 from=  1.000000e-08 to=  2.000500e-08
vhigh_outside_while =  3.025890e-06 at=  1.000500e-08
vlow_outside_while  =  -3.008855e-06 at=  1.001500e-08
peak_to_peak_outside_while=  6.03475e-06
supply_current_rms  =   5.93341e-05 from=  0.00000e+00 to=  7.00000e-08

binary raw file "3-stage_cs-vco_tb_WITH_APPENDWRITE.raw"
Reset re-loads circuit ** sch_path: /home/darunix/gitsandboxes/vco/vco/xschem/3-stage_cs-vco_tb.sch

Circuit: ** sch_path: /home/darunix/gitsandboxes/vco/vco/xschem/3-stage_cs-vco_tb.sch

option SCALE: Scale is set to 1e-06 for instance and model parameters
Doing analysis at TEMP = 27.000000 and TNOM = 27.000000

Warning: v1: no DC value, transient time 0 value used

Initial Transient Solution
--------------------------

Node                                   Voltage
----                                   -------
int_out_x1_3                       6.80528e-09
int_net1_x1_1                              1.8
int_net2_x1_2                                0
int_vctrl_x1_4                               0
net1                                       1.8
net2                                         0
out                                6.80528e-09
vctrl                                        0
vdd                                        1.8
int_vdd_x2_1                               1.8
int_out_x2_2                       6.80528e-09
int_gnd_x2_3                                 0
int_gnd_x3_2                                 0
int_out_x3_1                       6.80528e-09
int_gnd_x3_3                                 0
int_buf1_out_x3_6                  2.60627e-09
int_vdd_x3_5                               1.8
int_vdd_x3_4                               1.8
buf1_out                           2.60627e-09
int_buf1_out_x4_1                  2.60627e-09
int_vdd_x4_5                               1.8
int_vdd_x4_4                               1.8
int_gnd_x4_2                                 0
int_gnd_x4_3                                 0
int_net4_x4_6                       4.9501e-09
net4                                4.9501e-09
int_vdd_x5_5                               1.8
int_net5_x5_6                       4.9501e-09
int_vdd_x5_4                               1.8
int_net4_x5_1                       4.9501e-09
int_gnd_x5_2                                 0
int_gnd_x5_3                                 0
net5                                4.9501e-09
int_net3_x6_6                       4.9501e-09
int_gnd_x6_2                                 0
int_gnd_x6_3                                 0
int_net5_x6_1                       4.9501e-09
int_vdd_x6_5                               1.8
int_vdd_x6_4                               1.8
net3                                4.9501e-09
int_vdd_x7_5                               1.8
int_buf16_out_x7_6                  4.9501e-09
int_vdd_x7_4                               1.8
int_gnd_x7_2                                 0
int_gnd_x7_3                                 0
int_net3_x7_1                       4.9501e-09
buf16_out                           4.9501e-09
v1#branch                                    0
x7:x#branch                                  0
x7:vpwr#branch                    -8.17036e-12
x7:vpb#branch                     -4.15221e-11
x7:vnb#branch                       7.2401e-12
x7:vgnd#branch                     4.24513e-11
x7:a#branch                                  0
x6:x#branch                                  0
x6:vpwr#branch                    -4.08518e-12
x6:vpb#branch                     -2.07608e-11
x6:vnb#branch                      3.62005e-12
x6:vgnd#branch                     2.12257e-11
x6:a#branch                                  0
x5:x#branch                                  0
x5:vpwr#branch                    -2.04259e-12
x5:vpb#branch                     -1.03803e-11
x5:vnb#branch                      1.81003e-12
x5:vgnd#branch                     1.06128e-11
x5:a#branch                                  0
x4:x#branch                                  0
x4:vpwr#branch                     -1.9439e-12
x4:vpb#branch                      -5.1902e-12
x4:vnb#branch                      1.81003e-12
x4:vgnd#branch                     5.32401e-12
x4:a#branch                                  0
x3:x#branch                                  0
x3:vpwr#branch                    -2.01847e-12
x3:vpb#branch                     -1.80997e-12
x3:vnb#branch                      1.81009e-12
x3:vgnd#branch                     2.01837e-12
x3:a#branch                                  0
x2:vss#branch                    -4.56262e-210
x2:clk#branch                                0
x2:vdd#branch                      4.96131e-15
vmeas_current_gnd#branch           3.41127e-05
vmeas_current_vdd#branch           3.41127e-05
v2#branch                         -3.41128e-05
x1:vctrl#branch                              0
x1:out#branch                                0
x1:vss#branch                      3.41127e-05
x1:vdd#branch                     -3.41127e-05


No. of Data Rows : 7020

  Measurements for Transient Analysis


Error: measure  tvco_outside_while  (TRIG) : out of interval
 .meas tran tvco_outside_while trig v(out) val=0.5*1.8 rise=50 targ v(out) val=0.5*1.8 rise=51 failed!

Original line no.: 0, new internal line no.: 12503:
Undefined number [tvco_outside_while]
Original line no.: 0, new internal line no.: 12503:
Cannot compute substitute
fvco_outside_while  =   failed
supply_current_rms_outside_while=   1.88578e-05 from=  1.00000e-08 to=  4.00000e-08
ground_current_rms_outside_while=   2.26002e-05 from=  1.00000e-08 to=  4.00000e-08
vctrl_avg_outside_while=  4.000000e-01 from=  1.000000e-08 to=  2.000500e-08
vhigh_outside_while =  2.091754e-06 at=  1.000500e-08
vlow_outside_while  =  -2.073792e-06 at=  1.001500e-08
peak_to_peak_outside_while=  4.16555e-06
supply_current_rms  =   5.14649e-05 from=  0.00000e+00 to=  7.00000e-08

binary raw file "3-stage_cs-vco_tb_WITH_APPENDWRITE.raw"
Reset re-loads circuit ** sch_path: /home/darunix/gitsandboxes/vco/vco/xschem/3-stage_cs-vco_tb.sch

Circuit: ** sch_path: /home/darunix/gitsandboxes/vco/vco/xschem/3-stage_cs-vco_tb.sch

option SCALE: Scale is set to 1e-06 for instance and model parameters
Doing analysis at TEMP = 27.000000 and TNOM = 27.000000

Warning: v1: no DC value, transient time 0 value used

Initial Transient Solution
--------------------------

Node                                   Voltage
----                                   -------
int_out_x1_3                       6.80528e-09
int_net1_x1_1                              1.8
int_net2_x1_2                                0
int_vctrl_x1_4                               0
net1                                       1.8
net2                                         0
out                                6.80528e-09
vctrl                                        0
vdd                                        1.8
int_vdd_x2_1                               1.8
int_out_x2_2                       6.80528e-09
int_gnd_x2_3                                 0
int_gnd_x3_2                                 0
int_out_x3_1                       6.80528e-09
int_gnd_x3_3                                 0
int_buf1_out_x3_6                  2.60627e-09
int_vdd_x3_5                               1.8
int_vdd_x3_4                               1.8
buf1_out                           2.60627e-09
int_buf1_out_x4_1                  2.60627e-09
int_vdd_x4_5                               1.8
int_vdd_x4_4                               1.8
int_gnd_x4_2                                 0
int_gnd_x4_3                                 0
int_net4_x4_6                       4.9501e-09
net4                                4.9501e-09
int_vdd_x5_5                               1.8
int_net5_x5_6                       4.9501e-09
int_vdd_x5_4                               1.8
int_net4_x5_1                       4.9501e-09
int_gnd_x5_2                                 0
int_gnd_x5_3                                 0
net5                                4.9501e-09
int_net3_x6_6                       4.9501e-09
int_gnd_x6_2                                 0
int_gnd_x6_3                                 0
int_net5_x6_1                       4.9501e-09
int_vdd_x6_5                               1.8
int_vdd_x6_4                               1.8
net3                                4.9501e-09
int_vdd_x7_5                               1.8
int_buf16_out_x7_6                  4.9501e-09
int_vdd_x7_4                               1.8
int_gnd_x7_2                                 0
int_gnd_x7_3                                 0
int_net3_x7_1                       4.9501e-09
buf16_out                           4.9501e-09
v1#branch                                    0
x7:x#branch                                  0
x7:vpwr#branch                    -8.17036e-12
x7:vpb#branch                     -4.15221e-11
x7:vnb#branch                       7.2401e-12
x7:vgnd#branch                     4.24513e-11
x7:a#branch                                  0
x6:x#branch                                  0
x6:vpwr#branch                    -4.08518e-12
x6:vpb#branch                     -2.07608e-11
x6:vnb#branch                      3.62005e-12
x6:vgnd#branch                     2.12257e-11
x6:a#branch                                  0
x5:x#branch                                  0
x5:vpwr#branch                    -2.04259e-12
x5:vpb#branch                     -1.03803e-11
x5:vnb#branch                      1.81003e-12
x5:vgnd#branch                     1.06128e-11
x5:a#branch                                  0
x4:x#branch                                  0
x4:vpwr#branch                     -1.9439e-12
x4:vpb#branch                      -5.1902e-12
x4:vnb#branch                      1.81003e-12
x4:vgnd#branch                     5.32401e-12
x4:a#branch                                  0
x3:x#branch                                  0
x3:vpwr#branch                    -2.01847e-12
x3:vpb#branch                     -1.80997e-12
x3:vnb#branch                      1.81009e-12
x3:vgnd#branch                     2.01837e-12
x3:a#branch                                  0
x2:vss#branch                    -4.56262e-210
x2:clk#branch                                0
x2:vdd#branch                      4.96131e-15
vmeas_current_gnd#branch           3.41127e-05
vmeas_current_vdd#branch           3.41127e-05
v2#branch                         -3.41128e-05
x1:vctrl#branch                              0
x1:out#branch                                0
x1:vss#branch                      3.41127e-05
x1:vdd#branch                     -3.41127e-05


No. of Data Rows : 7020

  Measurements for Transient Analysis


Error: measure  tvco_outside_while  (TRIG) : out of interval
 .meas tran tvco_outside_while trig v(out) val=0.5*1.8 rise=50 targ v(out) val=0.5*1.8 rise=51 failed!

Original line no.: 0, new internal line no.: 12503:
Undefined number [tvco_outside_while]
Original line no.: 0, new internal line no.: 12503:
Cannot compute substitute
fvco_outside_while  =   failed
supply_current_rms_outside_while=   8.40097e-05 from=  1.00000e-08 to=  4.00000e-08
ground_current_rms_outside_while=   8.59100e-05 from=  1.00000e-08 to=  4.00000e-08
vctrl_avg_outside_while=  5.000000e-01 from=  1.000000e-08 to=  2.000500e-08
vhigh_outside_while =  1.909158e+00 at=  1.778500e-08
vlow_outside_while  =  -7.737419e-02 at=  1.768500e-08
peak_to_peak_outside_while=  1.98653e+00
supply_current_rms  =   9.36485e-05 from=  0.00000e+00 to=  7.00000e-08

binary raw file "3-stage_cs-vco_tb_WITH_APPENDWRITE.raw"
Reset re-loads circuit ** sch_path: /home/darunix/gitsandboxes/vco/vco/xschem/3-stage_cs-vco_tb.sch

Circuit: ** sch_path: /home/darunix/gitsandboxes/vco/vco/xschem/3-stage_cs-vco_tb.sch

option SCALE: Scale is set to 1e-06 for instance and model parameters
Doing analysis at TEMP = 27.000000 and TNOM = 27.000000

Warning: v1: no DC value, transient time 0 value used

Initial Transient Solution
--------------------------

Node                                   Voltage
----                                   -------
int_out_x1_3                       6.80528e-09
int_net1_x1_1                              1.8
int_net2_x1_2                                0
int_vctrl_x1_4                               0
net1                                       1.8
net2                                         0
out                                6.80528e-09
vctrl                                        0
vdd                                        1.8
int_vdd_x2_1                               1.8
int_out_x2_2                       6.80528e-09
int_gnd_x2_3                                 0
int_gnd_x3_2                                 0
int_out_x3_1                       6.80528e-09
int_gnd_x3_3                                 0
int_buf1_out_x3_6                  2.60627e-09
int_vdd_x3_5                               1.8
int_vdd_x3_4                               1.8
buf1_out                           2.60627e-09
int_buf1_out_x4_1                  2.60627e-09
int_vdd_x4_5                               1.8
int_vdd_x4_4                               1.8
int_gnd_x4_2                                 0
int_gnd_x4_3                                 0
int_net4_x4_6                       4.9501e-09
net4                                4.9501e-09
int_vdd_x5_5                               1.8
int_net5_x5_6                       4.9501e-09
int_vdd_x5_4                               1.8
int_net4_x5_1                       4.9501e-09
int_gnd_x5_2                                 0
int_gnd_x5_3                                 0
net5                                4.9501e-09
int_net3_x6_6                       4.9501e-09
int_gnd_x6_2                                 0
int_gnd_x6_3                                 0
int_net5_x6_1                       4.9501e-09
int_vdd_x6_5                               1.8
int_vdd_x6_4                               1.8
net3                                4.9501e-09
int_vdd_x7_5                               1.8
int_buf16_out_x7_6                  4.9501e-09
int_vdd_x7_4                               1.8
int_gnd_x7_2                                 0
int_gnd_x7_3                                 0
int_net3_x7_1                       4.9501e-09
buf16_out                           4.9501e-09
v1#branch                                    0
x7:x#branch                                  0
x7:vpwr#branch                    -8.17036e-12
x7:vpb#branch                     -4.15221e-11
x7:vnb#branch                       7.2401e-12
x7:vgnd#branch                     4.24513e-11
x7:a#branch                                  0
x6:x#branch                                  0
x6:vpwr#branch                    -4.08518e-12
x6:vpb#branch                     -2.07608e-11
x6:vnb#branch                      3.62005e-12
x6:vgnd#branch                     2.12257e-11
x6:a#branch                                  0
x5:x#branch                                  0
x5:vpwr#branch                    -2.04259e-12
x5:vpb#branch                     -1.03803e-11
x5:vnb#branch                      1.81003e-12
x5:vgnd#branch                     1.06128e-11
x5:a#branch                                  0
x4:x#branch                                  0
x4:vpwr#branch                     -1.9439e-12
x4:vpb#branch                      -5.1902e-12
x4:vnb#branch                      1.81003e-12
x4:vgnd#branch                     5.32401e-12
x4:a#branch                                  0
x3:x#branch                                  0
x3:vpwr#branch                    -2.01847e-12
x3:vpb#branch                     -1.80997e-12
x3:vnb#branch                      1.81009e-12
x3:vgnd#branch                     2.01837e-12
x3:a#branch                                  0
x2:vss#branch                    -4.56262e-210
x2:clk#branch                                0
x2:vdd#branch                      4.96131e-15
vmeas_current_gnd#branch           3.41127e-05
vmeas_current_vdd#branch           3.41127e-05
v2#branch                         -3.41128e-05
x1:vctrl#branch                              0
x1:out#branch                                0
x1:vss#branch                      3.41127e-05
x1:vdd#branch                     -3.41127e-05


No. of Data Rows : 7020

  Measurements for Transient Analysis


Error: measure  tvco_outside_while  (TRIG) : out of interval
 .meas tran tvco_outside_while trig v(out) val=0.5*1.8 rise=50 targ v(out) val=0.5*1.8 rise=51 failed!

Original line no.: 0, new internal line no.: 12503:
Undefined number [tvco_outside_while]
Original line no.: 0, new internal line no.: 12503:
Cannot compute substitute
fvco_outside_while  =   failed
supply_current_rms_outside_while=   9.39740e-05 from=  1.00000e-08 to=  4.00000e-08
ground_current_rms_outside_while=   1.09785e-04 from=  1.00000e-08 to=  4.00000e-08
vctrl_avg_outside_while=  6.000000e-01 from=  1.000000e-08 to=  2.000500e-08
vhigh_outside_while =  1.925105e+00 at=  1.185500e-08
vlow_outside_while  =  -7.576951e-02 at=  1.084500e-08
peak_to_peak_outside_while=  2.00087e+00
supply_current_rms  =   1.13992e-04 from=  0.00000e+00 to=  7.00000e-08

binary raw file "3-stage_cs-vco_tb_WITH_APPENDWRITE.raw"
Reset re-loads circuit ** sch_path: /home/darunix/gitsandboxes/vco/vco/xschem/3-stage_cs-vco_tb.sch

Circuit: ** sch_path: /home/darunix/gitsandboxes/vco/vco/xschem/3-stage_cs-vco_tb.sch

option SCALE: Scale is set to 1e-06 for instance and model parameters
Doing analysis at TEMP = 27.000000 and TNOM = 27.000000

Warning: v1: no DC value, transient time 0 value used

Initial Transient Solution
--------------------------

Node                                   Voltage
----                                   -------
int_out_x1_3                       6.80528e-09
int_net1_x1_1                              1.8
int_net2_x1_2                                0
int_vctrl_x1_4                               0
net1                                       1.8
net2                                         0
out                                6.80528e-09
vctrl                                        0
vdd                                        1.8
int_vdd_x2_1                               1.8
int_out_x2_2                       6.80528e-09
int_gnd_x2_3                                 0
int_gnd_x3_2                                 0
int_out_x3_1                       6.80528e-09
int_gnd_x3_3                                 0
int_buf1_out_x3_6                  2.60627e-09
int_vdd_x3_5                               1.8
int_vdd_x3_4                               1.8
buf1_out                           2.60627e-09
int_buf1_out_x4_1                  2.60627e-09
int_vdd_x4_5                               1.8
int_vdd_x4_4                               1.8
int_gnd_x4_2                                 0
int_gnd_x4_3                                 0
int_net4_x4_6                       4.9501e-09
net4                                4.9501e-09
int_vdd_x5_5                               1.8
int_net5_x5_6                       4.9501e-09
int_vdd_x5_4                               1.8
int_net4_x5_1                       4.9501e-09
int_gnd_x5_2                                 0
int_gnd_x5_3                                 0
net5                                4.9501e-09
int_net3_x6_6                       4.9501e-09
int_gnd_x6_2                                 0
int_gnd_x6_3                                 0
int_net5_x6_1                       4.9501e-09
int_vdd_x6_5                               1.8
int_vdd_x6_4                               1.8
net3                                4.9501e-09
int_vdd_x7_5                               1.8
int_buf16_out_x7_6                  4.9501e-09
int_vdd_x7_4                               1.8
int_gnd_x7_2                                 0
int_gnd_x7_3                                 0
int_net3_x7_1                       4.9501e-09
buf16_out                           4.9501e-09
v1#branch                                    0
x7:x#branch                                  0
x7:vpwr#branch                    -8.17036e-12
x7:vpb#branch                     -4.15221e-11
x7:vnb#branch                       7.2401e-12
x7:vgnd#branch                     4.24513e-11
x7:a#branch                                  0
x6:x#branch                                  0
x6:vpwr#branch                    -4.08518e-12
x6:vpb#branch                     -2.07608e-11
x6:vnb#branch                      3.62005e-12
x6:vgnd#branch                     2.12257e-11
x6:a#branch                                  0
x5:x#branch                                  0
x5:vpwr#branch                    -2.04259e-12
x5:vpb#branch                     -1.03803e-11
x5:vnb#branch                      1.81003e-12
x5:vgnd#branch                     1.06128e-11
x5:a#branch                                  0
x4:x#branch                                  0
x4:vpwr#branch                     -1.9439e-12
x4:vpb#branch                      -5.1902e-12
x4:vnb#branch                      1.81003e-12
x4:vgnd#branch                     5.32401e-12
x4:a#branch                                  0
x3:x#branch                                  0
x3:vpwr#branch                    -2.01847e-12
x3:vpb#branch                     -1.80997e-12
x3:vnb#branch                      1.81009e-12
x3:vgnd#branch                     2.01837e-12
x3:a#branch                                  0
x2:vss#branch                    -4.56262e-210
x2:clk#branch                                0
x2:vdd#branch                      4.96131e-15
vmeas_current_gnd#branch           3.41127e-05
vmeas_current_vdd#branch           3.41127e-05
v2#branch                         -3.41128e-05
x1:vctrl#branch                              0
x1:out#branch                                0
x1:vss#branch                      3.41127e-05
x1:vdd#branch                     -3.41127e-05


No. of Data Rows : 7020

  Measurements for Transient Analysis

tvco_outside_while  =  4.050321e-10 targ=  2.099878e-08 trig=  2.059375e-08
fvco_outside_while  =  2.46894e+09
supply_current_rms_outside_while=   2.72852e-04 from=  1.00000e-08 to=  4.00000e-08
ground_current_rms_outside_while=   2.86298e-04 from=  1.00000e-08 to=  4.00000e-08
vctrl_avg_outside_while=  7.000000e-01 from=  1.000000e-08 to=  2.000500e-08
vhigh_outside_while =  1.928871e+00 at=  1.273500e-08
vlow_outside_while  =  -7.913834e-02 at=  1.084500e-08
peak_to_peak_outside_while=  2.00801e+00
supply_current_rms  =   2.73012e-04 from=  0.00000e+00 to=  7.00000e-08

binary raw file "3-stage_cs-vco_tb_WITH_APPENDWRITE.raw"
Reset re-loads circuit ** sch_path: /home/darunix/gitsandboxes/vco/vco/xschem/3-stage_cs-vco_tb.sch

Circuit: ** sch_path: /home/darunix/gitsandboxes/vco/vco/xschem/3-stage_cs-vco_tb.sch

option SCALE: Scale is set to 1e-06 for instance and model parameters
Doing analysis at TEMP = 27.000000 and TNOM = 27.000000

Warning: v1: no DC value, transient time 0 value used

Initial Transient Solution
--------------------------

Node                                   Voltage
----                                   -------
int_out_x1_3                       6.80528e-09
int_net1_x1_1                              1.8
int_net2_x1_2                                0
int_vctrl_x1_4                               0
net1                                       1.8
net2                                         0
out                                6.80528e-09
vctrl                                        0
vdd                                        1.8
int_vdd_x2_1                               1.8
int_out_x2_2                       6.80528e-09
int_gnd_x2_3                                 0
int_gnd_x3_2                                 0
int_out_x3_1                       6.80528e-09
int_gnd_x3_3                                 0
int_buf1_out_x3_6                  2.60627e-09
int_vdd_x3_5                               1.8
int_vdd_x3_4                               1.8
buf1_out                           2.60627e-09
int_buf1_out_x4_1                  2.60627e-09
int_vdd_x4_5                               1.8
int_vdd_x4_4                               1.8
int_gnd_x4_2                                 0
int_gnd_x4_3                                 0
int_net4_x4_6                       4.9501e-09
net4                                4.9501e-09
int_vdd_x5_5                               1.8
int_net5_x5_6                       4.9501e-09
int_vdd_x5_4                               1.8
int_net4_x5_1                       4.9501e-09
int_gnd_x5_2                                 0
int_gnd_x5_3                                 0
net5                                4.9501e-09
int_net3_x6_6                       4.9501e-09
int_gnd_x6_2                                 0
int_gnd_x6_3                                 0
int_net5_x6_1                       4.9501e-09
int_vdd_x6_5                               1.8
int_vdd_x6_4                               1.8
net3                                4.9501e-09
int_vdd_x7_5                               1.8
int_buf16_out_x7_6                  4.9501e-09
int_vdd_x7_4                               1.8
int_gnd_x7_2                                 0
int_gnd_x7_3                                 0
int_net3_x7_1                       4.9501e-09
buf16_out                           4.9501e-09
v1#branch                                    0
x7:x#branch                                  0
x7:vpwr#branch                    -8.17036e-12
x7:vpb#branch                     -4.15221e-11
x7:vnb#branch                       7.2401e-12
x7:vgnd#branch                     4.24513e-11
x7:a#branch                                  0
x6:x#branch                                  0
x6:vpwr#branch                    -4.08518e-12
x6:vpb#branch                     -2.07608e-11
x6:vnb#branch                      3.62005e-12
x6:vgnd#branch                     2.12257e-11
x6:a#branch                                  0
x5:x#branch                                  0
x5:vpwr#branch                    -2.04259e-12
x5:vpb#branch                     -1.03803e-11
x5:vnb#branch                      1.81003e-12
x5:vgnd#branch                     1.06128e-11
x5:a#branch                                  0
x4:x#branch                                  0
x4:vpwr#branch                     -1.9439e-12
x4:vpb#branch                      -5.1902e-12
x4:vnb#branch                      1.81003e-12
x4:vgnd#branch                     5.32401e-12
x4:a#branch                                  0
x3:x#branch                                  0
x3:vpwr#branch                    -2.01847e-12
x3:vpb#branch                     -1.80997e-12
x3:vnb#branch                      1.81009e-12
x3:vgnd#branch                     2.01837e-12
x3:a#branch                                  0
x2:vss#branch                    -4.56262e-210
x2:clk#branch                                0
x2:vdd#branch                      4.96131e-15
vmeas_current_gnd#branch           3.41127e-05
vmeas_current_vdd#branch           3.41127e-05
v2#branch                         -3.41128e-05
x1:vctrl#branch                              0
x1:out#branch                                0
x1:vss#branch                      3.41127e-05
x1:vdd#branch                     -3.41127e-05


No. of Data Rows : 7020

  Measurements for Transient Analysis

tvco_outside_while  =  2.861045e-10 targ=  1.586015e-08 trig=  1.557404e-08
fvco_outside_while  =  3.49523e+09
supply_current_rms_outside_while=   3.85991e-04 from=  1.00000e-08 to=  4.00000e-08
ground_current_rms_outside_while=   3.81517e-04 from=  1.00000e-08 to=  4.00000e-08
vctrl_avg_outside_while=  8.000000e-01 from=  1.000000e-08 to=  2.000500e-08
vhigh_outside_while =  1.927336e+00 at=  1.855500e-08
vlow_outside_while  =  -8.207872e-02 at=  1.669500e-08
peak_to_peak_outside_while=  2.00941e+00
supply_current_rms  =   3.81693e-04 from=  0.00000e+00 to=  7.00000e-08

binary raw file "3-stage_cs-vco_tb_WITH_APPENDWRITE.raw"
Reset re-loads circuit ** sch_path: /home/darunix/gitsandboxes/vco/vco/xschem/3-stage_cs-vco_tb.sch

Circuit: ** sch_path: /home/darunix/gitsandboxes/vco/vco/xschem/3-stage_cs-vco_tb.sch

option SCALE: Scale is set to 1e-06 for instance and model parameters
Doing analysis at TEMP = 27.000000 and TNOM = 27.000000

Warning: v1: no DC value, transient time 0 value used

Initial Transient Solution
--------------------------

Node                                   Voltage
----                                   -------
int_out_x1_3                       6.80528e-09
int_net1_x1_1                              1.8
int_net2_x1_2                                0
int_vctrl_x1_4                               0
net1                                       1.8
net2                                         0
out                                6.80528e-09
vctrl                                        0
vdd                                        1.8
int_vdd_x2_1                               1.8
int_out_x2_2                       6.80528e-09
int_gnd_x2_3                                 0
int_gnd_x3_2                                 0
int_out_x3_1                       6.80528e-09
int_gnd_x3_3                                 0
int_buf1_out_x3_6                  2.60627e-09
int_vdd_x3_5                               1.8
int_vdd_x3_4                               1.8
buf1_out                           2.60627e-09
int_buf1_out_x4_1                  2.60627e-09
int_vdd_x4_5                               1.8
int_vdd_x4_4                               1.8
int_gnd_x4_2                                 0
int_gnd_x4_3                                 0
int_net4_x4_6                       4.9501e-09
net4                                4.9501e-09
int_vdd_x5_5                               1.8
int_net5_x5_6                       4.9501e-09
int_vdd_x5_4                               1.8
int_net4_x5_1                       4.9501e-09
int_gnd_x5_2                                 0
int_gnd_x5_3                                 0
net5                                4.9501e-09
int_net3_x6_6                       4.9501e-09
int_gnd_x6_2                                 0
int_gnd_x6_3                                 0
int_net5_x6_1                       4.9501e-09
int_vdd_x6_5                               1.8
int_vdd_x6_4                               1.8
net3                                4.9501e-09
int_vdd_x7_5                               1.8
int_buf16_out_x7_6                  4.9501e-09
int_vdd_x7_4                               1.8
int_gnd_x7_2                                 0
int_gnd_x7_3                                 0
int_net3_x7_1                       4.9501e-09
buf16_out                           4.9501e-09
v1#branch                                    0
x7:x#branch                                  0
x7:vpwr#branch                    -8.17036e-12
x7:vpb#branch                     -4.15221e-11
x7:vnb#branch                       7.2401e-12
x7:vgnd#branch                     4.24513e-11
x7:a#branch                                  0
x6:x#branch                                  0
x6:vpwr#branch                    -4.08518e-12
x6:vpb#branch                     -2.07608e-11
x6:vnb#branch                      3.62005e-12
x6:vgnd#branch                     2.12257e-11
x6:a#branch                                  0
x5:x#branch                                  0
x5:vpwr#branch                    -2.04259e-12
x5:vpb#branch                     -1.03803e-11
x5:vnb#branch                      1.81003e-12
x5:vgnd#branch                     1.06128e-11
x5:a#branch                                  0
x4:x#branch                                  0
x4:vpwr#branch                     -1.9439e-12
x4:vpb#branch                      -5.1902e-12
x4:vnb#branch                      1.81003e-12
x4:vgnd#branch                     5.32401e-12
x4:a#branch                                  0
x3:x#branch                                  0
x3:vpwr#branch                    -2.01847e-12
x3:vpb#branch                     -1.80997e-12
x3:vnb#branch                      1.81009e-12
x3:vgnd#branch                     2.01837e-12
x3:a#branch                                  0
x2:vss#branch                    -4.56262e-210
x2:clk#branch                                0
x2:vdd#branch                      4.96131e-15
vmeas_current_gnd#branch           3.41127e-05
vmeas_current_vdd#branch           3.41127e-05
v2#branch                         -3.41128e-05
x1:vctrl#branch                              0
x1:out#branch                                0
x1:vss#branch                      3.41127e-05
x1:vdd#branch                     -3.41127e-05


No. of Data Rows : 7020

  Measurements for Transient Analysis

tvco_outside_while  =  2.689004e-10 targ=  1.503567e-08 trig=  1.476677e-08
fvco_outside_while  =  3.71885e+09
supply_current_rms_outside_while=   4.14086e-04 from=  1.00000e-08 to=  4.00000e-08
ground_current_rms_outside_while=   4.13694e-04 from=  1.00000e-08 to=  4.00000e-08
vctrl_avg_outside_while=  9.000000e-01 from=  1.000000e-08 to=  2.000500e-08
vhigh_outside_while =  1.925431e+00 at=  1.836500e-08
vlow_outside_while  =  -8.136220e-02 at=  1.178500e-08
peak_to_peak_outside_while=  2.00679e+00
supply_current_rms  =   4.10064e-04 from=  0.00000e+00 to=  7.00000e-08

binary raw file "3-stage_cs-vco_tb_WITH_APPENDWRITE.raw"
Reset re-loads circuit ** sch_path: /home/darunix/gitsandboxes/vco/vco/xschem/3-stage_cs-vco_tb.sch

Circuit: ** sch_path: /home/darunix/gitsandboxes/vco/vco/xschem/3-stage_cs-vco_tb.sch

option SCALE: Scale is set to 1e-06 for instance and model parameters
Doing analysis at TEMP = 27.000000 and TNOM = 27.000000

Warning: v1: no DC value, transient time 0 value used

Initial Transient Solution
--------------------------

Node                                   Voltage
----                                   -------
int_out_x1_3                       6.80528e-09
int_net1_x1_1                              1.8
int_net2_x1_2                                0
int_vctrl_x1_4                               0
net1                                       1.8
net2                                         0
out                                6.80528e-09
vctrl                                        0
vdd                                        1.8
int_vdd_x2_1                               1.8
int_out_x2_2                       6.80528e-09
int_gnd_x2_3                                 0
int_gnd_x3_2                                 0
int_out_x3_1                       6.80528e-09
int_gnd_x3_3                                 0
int_buf1_out_x3_6                  2.60627e-09
int_vdd_x3_5                               1.8
int_vdd_x3_4                               1.8
buf1_out                           2.60627e-09
int_buf1_out_x4_1                  2.60627e-09
int_vdd_x4_5                               1.8
int_vdd_x4_4                               1.8
int_gnd_x4_2                                 0
int_gnd_x4_3                                 0
int_net4_x4_6                       4.9501e-09
net4                                4.9501e-09
int_vdd_x5_5                               1.8
int_net5_x5_6                       4.9501e-09
int_vdd_x5_4                               1.8
int_net4_x5_1                       4.9501e-09
int_gnd_x5_2                                 0
int_gnd_x5_3                                 0
net5                                4.9501e-09
int_net3_x6_6                       4.9501e-09
int_gnd_x6_2                                 0
int_gnd_x6_3                                 0
int_net5_x6_1                       4.9501e-09
int_vdd_x6_5                               1.8
int_vdd_x6_4                               1.8
net3                                4.9501e-09
int_vdd_x7_5                               1.8
int_buf16_out_x7_6                  4.9501e-09
int_vdd_x7_4                               1.8
int_gnd_x7_2                                 0
int_gnd_x7_3                                 0
int_net3_x7_1                       4.9501e-09
buf16_out                           4.9501e-09
v1#branch                                    0
x7:x#branch                                  0
x7:vpwr#branch                    -8.17036e-12
x7:vpb#branch                     -4.15221e-11
x7:vnb#branch                       7.2401e-12
x7:vgnd#branch                     4.24513e-11
x7:a#branch                                  0
x6:x#branch                                  0
x6:vpwr#branch                    -4.08518e-12
x6:vpb#branch                     -2.07608e-11
x6:vnb#branch                      3.62005e-12
x6:vgnd#branch                     2.12257e-11
x6:a#branch                                  0
x5:x#branch                                  0
x5:vpwr#branch                    -2.04259e-12
x5:vpb#branch                     -1.03803e-11
x5:vnb#branch                      1.81003e-12
x5:vgnd#branch                     1.06128e-11
x5:a#branch                                  0
x4:x#branch                                  0
x4:vpwr#branch                     -1.9439e-12
x4:vpb#branch                      -5.1902e-12
x4:vnb#branch                      1.81003e-12
x4:vgnd#branch                     5.32401e-12
x4:a#branch                                  0
x3:x#branch                                  0
x3:vpwr#branch                    -2.01847e-12
x3:vpb#branch                     -1.80997e-12
x3:vnb#branch                      1.81009e-12
x3:vgnd#branch                     2.01837e-12
x3:a#branch                                  0
x2:vss#branch                    -4.56262e-210
x2:clk#branch                                0
x2:vdd#branch                      4.96131e-15
vmeas_current_gnd#branch           3.41127e-05
vmeas_current_vdd#branch           3.41127e-05
v2#branch                         -3.41128e-05
x1:vctrl#branch                              0
x1:out#branch                                0
x1:vss#branch                      3.41127e-05
x1:vdd#branch                     -3.41127e-05


No. of Data Rows : 7020

  Measurements for Transient Analysis

tvco_outside_while  =  2.639576e-10 targ=  1.480330e-08 trig=  1.453935e-08
fvco_outside_while  =  3.78849e+09
supply_current_rms_outside_while=   4.42853e-04 from=  1.00000e-08 to=  4.00000e-08
ground_current_rms_outside_while=   4.40599e-04 from=  1.00000e-08 to=  4.00000e-08
vctrl_avg_outside_while=  1.000000e+00 from=  1.000000e-08 to=  2.000500e-08
vhigh_outside_while =  1.924422e+00 at=  1.305500e-08
vlow_outside_while  =  -8.134393e-02 at=  1.451500e-08
peak_to_peak_outside_while=  2.00577e+00
supply_current_rms  =   4.37730e-04 from=  0.00000e+00 to=  7.00000e-08

binary raw file "3-stage_cs-vco_tb_WITH_APPENDWRITE.raw"
Reset re-loads circuit ** sch_path: /home/darunix/gitsandboxes/vco/vco/xschem/3-stage_cs-vco_tb.sch

Circuit: ** sch_path: /home/darunix/gitsandboxes/vco/vco/xschem/3-stage_cs-vco_tb.sch

option SCALE: Scale is set to 1e-06 for instance and model parameters
Doing analysis at TEMP = 27.000000 and TNOM = 27.000000

Warning: v1: no DC value, transient time 0 value used

Initial Transient Solution
--------------------------

Node                                   Voltage
----                                   -------
int_out_x1_3                       6.80528e-09
int_net1_x1_1                              1.8
int_net2_x1_2                                0
int_vctrl_x1_4                               0
net1                                       1.8
net2                                         0
out                                6.80528e-09
vctrl                                        0
vdd                                        1.8
int_vdd_x2_1                               1.8
int_out_x2_2                       6.80528e-09
int_gnd_x2_3                                 0
int_gnd_x3_2                                 0
int_out_x3_1                       6.80528e-09
int_gnd_x3_3                                 0
int_buf1_out_x3_6                  2.60627e-09
int_vdd_x3_5                               1.8
int_vdd_x3_4                               1.8
buf1_out                           2.60627e-09
int_buf1_out_x4_1                  2.60627e-09
int_vdd_x4_5                               1.8
int_vdd_x4_4                               1.8
int_gnd_x4_2                                 0
int_gnd_x4_3                                 0
int_net4_x4_6                       4.9501e-09
net4                                4.9501e-09
int_vdd_x5_5                               1.8
int_net5_x5_6                       4.9501e-09
int_vdd_x5_4                               1.8
int_net4_x5_1                       4.9501e-09
int_gnd_x5_2                                 0
int_gnd_x5_3                                 0
net5                                4.9501e-09
int_net3_x6_6                       4.9501e-09
int_gnd_x6_2                                 0
int_gnd_x6_3                                 0
int_net5_x6_1                       4.9501e-09
int_vdd_x6_5                               1.8
int_vdd_x6_4                               1.8
net3                                4.9501e-09
int_vdd_x7_5                               1.8
int_buf16_out_x7_6                  4.9501e-09
int_vdd_x7_4                               1.8
int_gnd_x7_2                                 0
int_gnd_x7_3                                 0
int_net3_x7_1                       4.9501e-09
buf16_out                           4.9501e-09
v1#branch                                    0
x7:x#branch                                  0
x7:vpwr#branch                    -8.17036e-12
x7:vpb#branch                     -4.15221e-11
x7:vnb#branch                       7.2401e-12
x7:vgnd#branch                     4.24513e-11
x7:a#branch                                  0
x6:x#branch                                  0
x6:vpwr#branch                    -4.08518e-12
x6:vpb#branch                     -2.07608e-11
x6:vnb#branch                      3.62005e-12
x6:vgnd#branch                     2.12257e-11
x6:a#branch                                  0
x5:x#branch                                  0
x5:vpwr#branch                    -2.04259e-12
x5:vpb#branch                     -1.03803e-11
x5:vnb#branch                      1.81003e-12
x5:vgnd#branch                     1.06128e-11
x5:a#branch                                  0
x4:x#branch                                  0
x4:vpwr#branch                     -1.9439e-12
x4:vpb#branch                      -5.1902e-12
x4:vnb#branch                      1.81003e-12
x4:vgnd#branch                     5.32401e-12
x4:a#branch                                  0
x3:x#branch                                  0
x3:vpwr#branch                    -2.01847e-12
x3:vpb#branch                     -1.80997e-12
x3:vnb#branch                      1.81009e-12
x3:vgnd#branch                     2.01837e-12
x3:a#branch                                  0
x2:vss#branch                    -4.56262e-210
x2:clk#branch                                0
x2:vdd#branch                      4.96131e-15
vmeas_current_gnd#branch           3.41127e-05
vmeas_current_vdd#branch           3.41127e-05
v2#branch                         -3.41128e-05
x1:vctrl#branch                              0
x1:out#branch                                0
x1:vss#branch                      3.41127e-05
x1:vdd#branch                     -3.41127e-05


No. of Data Rows : 7020

  Measurements for Transient Analysis

tvco_outside_while  =  2.615959e-10 targ=  1.469719e-08 trig=  1.443559e-08
fvco_outside_while  =  3.82269e+09
supply_current_rms_outside_while=   4.74619e-04 from=  1.00000e-08 to=  4.00000e-08
ground_current_rms_outside_while=   4.68641e-04 from=  1.00000e-08 to=  4.00000e-08
vctrl_avg_outside_while=  1.100000e+00 from=  1.000000e-08 to=  2.000500e-08
vhigh_outside_while =  1.923786e+00 at=  1.950500e-08
vlow_outside_while  =  -8.138805e-02 at=  1.964500e-08
peak_to_peak_outside_while=  2.00517e+00
supply_current_rms  =   4.69329e-04 from=  0.00000e+00 to=  7.00000e-08

binary raw file "3-stage_cs-vco_tb_WITH_APPENDWRITE.raw"
Reset re-loads circuit ** sch_path: /home/darunix/gitsandboxes/vco/vco/xschem/3-stage_cs-vco_tb.sch

Circuit: ** sch_path: /home/darunix/gitsandboxes/vco/vco/xschem/3-stage_cs-vco_tb.sch

option SCALE: Scale is set to 1e-06 for instance and model parameters
Doing analysis at TEMP = 27.000000 and TNOM = 27.000000

Warning: v1: no DC value, transient time 0 value used

Initial Transient Solution
--------------------------

Node                                   Voltage
----                                   -------
int_out_x1_3                       6.80528e-09
int_net1_x1_1                              1.8
int_net2_x1_2                                0
int_vctrl_x1_4                               0
net1                                       1.8
net2                                         0
out                                6.80528e-09
vctrl                                        0
vdd                                        1.8
int_vdd_x2_1                               1.8
int_out_x2_2                       6.80528e-09
int_gnd_x2_3                                 0
int_gnd_x3_2                                 0
int_out_x3_1                       6.80528e-09
int_gnd_x3_3                                 0
int_buf1_out_x3_6                  2.60627e-09
int_vdd_x3_5                               1.8
int_vdd_x3_4                               1.8
buf1_out                           2.60627e-09
int_buf1_out_x4_1                  2.60627e-09
int_vdd_x4_5                               1.8
int_vdd_x4_4                               1.8
int_gnd_x4_2                                 0
int_gnd_x4_3                                 0
int_net4_x4_6                       4.9501e-09
net4                                4.9501e-09
int_vdd_x5_5                               1.8
int_net5_x5_6                       4.9501e-09
int_vdd_x5_4                               1.8
int_net4_x5_1                       4.9501e-09
int_gnd_x5_2                                 0
int_gnd_x5_3                                 0
net5                                4.9501e-09
int_net3_x6_6                       4.9501e-09
int_gnd_x6_2                                 0
int_gnd_x6_3                                 0
int_net5_x6_1                       4.9501e-09
int_vdd_x6_5                               1.8
int_vdd_x6_4                               1.8
net3                                4.9501e-09
int_vdd_x7_5                               1.8
int_buf16_out_x7_6                  4.9501e-09
int_vdd_x7_4                               1.8
int_gnd_x7_2                                 0
int_gnd_x7_3                                 0
int_net3_x7_1                       4.9501e-09
buf16_out                           4.9501e-09
v1#branch                                    0
x7:x#branch                                  0
x7:vpwr#branch                    -8.17036e-12
x7:vpb#branch                     -4.15221e-11
x7:vnb#branch                       7.2401e-12
x7:vgnd#branch                     4.24513e-11
x7:a#branch                                  0
x6:x#branch                                  0
x6:vpwr#branch                    -4.08518e-12
x6:vpb#branch                     -2.07608e-11
x6:vnb#branch                      3.62005e-12
x6:vgnd#branch                     2.12257e-11
x6:a#branch                                  0
x5:x#branch                                  0
x5:vpwr#branch                    -2.04259e-12
x5:vpb#branch                     -1.03803e-11
x5:vnb#branch                      1.81003e-12
x5:vgnd#branch                     1.06128e-11
x5:a#branch                                  0
x4:x#branch                                  0
x4:vpwr#branch                     -1.9439e-12
x4:vpb#branch                      -5.1902e-12
x4:vnb#branch                      1.81003e-12
x4:vgnd#branch                     5.32401e-12
x4:a#branch                                  0
x3:x#branch                                  0
x3:vpwr#branch                    -2.01847e-12
x3:vpb#branch                     -1.80997e-12
x3:vnb#branch                      1.81009e-12
x3:vgnd#branch                     2.01837e-12
x3:a#branch                                  0
x2:vss#branch                    -4.56262e-210
x2:clk#branch                                0
x2:vdd#branch                      4.96131e-15
vmeas_current_gnd#branch           3.41127e-05
vmeas_current_vdd#branch           3.41127e-05
v2#branch                         -3.41128e-05
x1:vctrl#branch                              0
x1:out#branch                                0
x1:vss#branch                      3.41127e-05
x1:vdd#branch                     -3.41127e-05


No. of Data Rows : 7020

  Measurements for Transient Analysis

tvco_outside_while  =  2.604852e-10 targ=  1.464378e-08 trig=  1.438329e-08
fvco_outside_while  =  3.83899e+09
supply_current_rms_outside_while=   5.42198e-04 from=  1.00000e-08 to=  4.00000e-08
ground_current_rms_outside_while=   4.91991e-04 from=  1.00000e-08 to=  4.00000e-08
vctrl_avg_outside_while=  1.200000e+00 from=  1.000000e-08 to=  2.000500e-08
vhigh_outside_while =  1.923406e+00 at=  1.239500e-08
vlow_outside_while  =  -8.140321e-02 at=  1.253500e-08
peak_to_peak_outside_while=  2.00481e+00
supply_current_rms  =   5.36757e-04 from=  0.00000e+00 to=  7.00000e-08

binary raw file "3-stage_cs-vco_tb_WITH_APPENDWRITE.raw"
Reset re-loads circuit ** sch_path: /home/darunix/gitsandboxes/vco/vco/xschem/3-stage_cs-vco_tb.sch

Circuit: ** sch_path: /home/darunix/gitsandboxes/vco/vco/xschem/3-stage_cs-vco_tb.sch

option SCALE: Scale is set to 1e-06 for instance and model parameters
Doing analysis at TEMP = 27.000000 and TNOM = 27.000000

Warning: v1: no DC value, transient time 0 value used

Initial Transient Solution
--------------------------

Node                                   Voltage
----                                   -------
int_out_x1_3                       6.80528e-09
int_net1_x1_1                              1.8
int_net2_x1_2                                0
int_vctrl_x1_4                               0
net1                                       1.8
net2                                         0
out                                6.80528e-09
vctrl                                        0
vdd                                        1.8
int_vdd_x2_1                               1.8
int_out_x2_2                       6.80528e-09
int_gnd_x2_3                                 0
int_gnd_x3_2                                 0
int_out_x3_1                       6.80528e-09
int_gnd_x3_3                                 0
int_buf1_out_x3_6                  2.60627e-09
int_vdd_x3_5                               1.8
int_vdd_x3_4                               1.8
buf1_out                           2.60627e-09
int_buf1_out_x4_1                  2.60627e-09
int_vdd_x4_5                               1.8
int_vdd_x4_4                               1.8
int_gnd_x4_2                                 0
int_gnd_x4_3                                 0
int_net4_x4_6                       4.9501e-09
net4                                4.9501e-09
int_vdd_x5_5                               1.8
int_net5_x5_6                       4.9501e-09
int_vdd_x5_4                               1.8
int_net4_x5_1                       4.9501e-09
int_gnd_x5_2                                 0
int_gnd_x5_3                                 0
net5                                4.9501e-09
int_net3_x6_6                       4.9501e-09
int_gnd_x6_2                                 0
int_gnd_x6_3                                 0
int_net5_x6_1                       4.9501e-09
int_vdd_x6_5                               1.8
int_vdd_x6_4                               1.8
net3                                4.9501e-09
int_vdd_x7_5                               1.8
int_buf16_out_x7_6                  4.9501e-09
int_vdd_x7_4                               1.8
int_gnd_x7_2                                 0
int_gnd_x7_3                                 0
int_net3_x7_1                       4.9501e-09
buf16_out                           4.9501e-09
v1#branch                                    0
x7:x#branch                                  0
x7:vpwr#branch                    -8.17036e-12
x7:vpb#branch                     -4.15221e-11
x7:vnb#branch                       7.2401e-12
x7:vgnd#branch                     4.24513e-11
x7:a#branch                                  0
x6:x#branch                                  0
x6:vpwr#branch                    -4.08518e-12
x6:vpb#branch                     -2.07608e-11
x6:vnb#branch                      3.62005e-12
x6:vgnd#branch                     2.12257e-11
x6:a#branch                                  0
x5:x#branch                                  0
x5:vpwr#branch                    -2.04259e-12
x5:vpb#branch                     -1.03803e-11
x5:vnb#branch                      1.81003e-12
x5:vgnd#branch                     1.06128e-11
x5:a#branch                                  0
x4:x#branch                                  0
x4:vpwr#branch                     -1.9439e-12
x4:vpb#branch                      -5.1902e-12
x4:vnb#branch                      1.81003e-12
x4:vgnd#branch                     5.32401e-12
x4:a#branch                                  0
x3:x#branch                                  0
x3:vpwr#branch                    -2.01847e-12
x3:vpb#branch                     -1.80997e-12
x3:vnb#branch                      1.81009e-12
x3:vgnd#branch                     2.01837e-12
x3:a#branch                                  0
x2:vss#branch                    -4.56262e-210
x2:clk#branch                                0
x2:vdd#branch                      4.96131e-15
vmeas_current_gnd#branch           3.41127e-05
vmeas_current_vdd#branch           3.41127e-05
v2#branch                         -3.41128e-05
x1:vctrl#branch                              0
x1:out#branch                                0
x1:vss#branch                      3.41127e-05
x1:vdd#branch                     -3.41127e-05


No. of Data Rows : 7020

  Measurements for Transient Analysis

tvco_outside_while  =  2.600154e-10 targ=  1.462108e-08 trig=  1.436107e-08
fvco_outside_while  =  3.84593e+09
supply_current_rms_outside_while=   3.37032e-03 from=  1.00000e-08 to=  4.00000e-08
ground_current_rms_outside_while=   1.19336e-03 from=  1.00000e-08 to=  4.00000e-08
vctrl_avg_outside_while=  1.300000e+00 from=  1.000000e-08 to=  2.000500e-08
vhigh_outside_while =  1.922708e+00 at=  1.003500e-08
vlow_outside_while  =  -8.083502e-02 at=  1.017500e-08
peak_to_peak_outside_while=  2.00354e+00
supply_current_rms  =   5.35448e-03 from=  0.00000e+00 to=  7.00000e-08

binary raw file "3-stage_cs-vco_tb_WITH_APPENDWRITE.raw"
Reset re-loads circuit ** sch_path: /home/darunix/gitsandboxes/vco/vco/xschem/3-stage_cs-vco_tb.sch

Circuit: ** sch_path: /home/darunix/gitsandboxes/vco/vco/xschem/3-stage_cs-vco_tb.sch

option SCALE: Scale is set to 1e-06 for instance and model parameters
Doing analysis at TEMP = 27.000000 and TNOM = 27.000000

Warning: v1: no DC value, transient time 0 value used

Initial Transient Solution
--------------------------

Node                                   Voltage
----                                   -------
int_out_x1_3                       6.80528e-09
int_net1_x1_1                              1.8
int_net2_x1_2                                0
int_vctrl_x1_4                               0
net1                                       1.8
net2                                         0
out                                6.80528e-09
vctrl                                        0
vdd                                        1.8
int_vdd_x2_1                               1.8
int_out_x2_2                       6.80528e-09
int_gnd_x2_3                                 0
int_gnd_x3_2                                 0
int_out_x3_1                       6.80528e-09
int_gnd_x3_3                                 0
int_buf1_out_x3_6                  2.60627e-09
int_vdd_x3_5                               1.8
int_vdd_x3_4                               1.8
buf1_out                           2.60627e-09
int_buf1_out_x4_1                  2.60627e-09
int_vdd_x4_5                               1.8
int_vdd_x4_4                               1.8
int_gnd_x4_2                                 0
int_gnd_x4_3                                 0
int_net4_x4_6                       4.9501e-09
net4                                4.9501e-09
int_vdd_x5_5                               1.8
int_net5_x5_6                       4.9501e-09
int_vdd_x5_4                               1.8
int_net4_x5_1                       4.9501e-09
int_gnd_x5_2                                 0
int_gnd_x5_3                                 0
net5                                4.9501e-09
int_net3_x6_6                       4.9501e-09
int_gnd_x6_2                                 0
int_gnd_x6_3                                 0
int_net5_x6_1                       4.9501e-09
int_vdd_x6_5                               1.8
int_vdd_x6_4                               1.8
net3                                4.9501e-09
int_vdd_x7_5                               1.8
int_buf16_out_x7_6                  4.9501e-09
int_vdd_x7_4                               1.8
int_gnd_x7_2                                 0
int_gnd_x7_3                                 0
int_net3_x7_1                       4.9501e-09
[...]
x7:vnb#branch                       7.2401e-12
x7:vgnd#branch                     4.24513e-11
x7:a#branch                                  0
x6:x#branch                                  0
x6:vpwr#branch                    -4.08518e-12
x6:vpb#branch                     -2.07608e-11
x6:vnb#branch                      3.62005e-12
x6:vgnd#branch                     2.12257e-11
x6:a#branch                                  0
x5:x#branch                                  0
x5:vpwr#branch                    -2.04259e-12
x5:vpb#branch                     -1.03803e-11
x5:vnb#branch                      1.81003e-12
x5:vgnd#branch                     1.06128e-11
x5:a#branch                                  0
x4:x#branch                                  0
x4:vpwr#branch                     -1.9439e-12
x4:vpb#branch                      -5.1902e-12
x4:vnb#branch                      1.81003e-12
x4:vgnd#branch                     5.32401e-12
x4:a#branch                                  0
x3:x#branch                                  0
x3:vpwr#branch                    -2.01847e-12
x3:vpb#branch                     -1.80997e-12
x3:vnb#branch                      1.81009e-12
x3:vgnd#branch                     2.01837e-12
x3:a#branch                                  0
x2:vss#branch                    -4.56262e-210
x2:clk#branch                                0
x2:vdd#branch                      4.96131e-15
vmeas_current_gnd#branch           3.41127e-05
vmeas_current_vdd#branch           3.41127e-05
v2#branch                         -3.41128e-05
x1:vctrl#branch                              0
x1:out#branch                                0
x1:vss#branch                      3.41127e-05
x1:vdd#branch                     -3.41127e-05


No. of Data Rows : 7020

  Measurements for Transient Analysis

tvco_outside_while  =  2.594543e-10 targ=  1.459060e-08 trig=  1.433115e-08
fvco_outside_while  =  3.85424e+09
supply_current_rms_outside_while=   5.95473e-04 from=  1.00000e-08 to=  4.00000e-08
ground_current_rms_outside_while=   5.28028e-04 from=  1.00000e-08 to=  4.00000e-08
vctrl_avg_outside_while=  1.500000e+00 from=  1.000000e-08 to=  2.000500e-08
vhigh_outside_while =  1.923008e+00 at=  1.520500e-08
vlow_outside_while  =  -8.132815e-02 at=  1.041500e-08
peak_to_peak_outside_while=  2.00434e+00
supply_current_rms  =   5.86964e-04 from=  0.00000e+00 to=  7.00000e-08

binary raw file "3-stage_cs-vco_tb_WITH_APPENDWRITE.raw"
Reset re-loads circuit ** sch_path: /home/darunix/gitsandboxes/vco/vco/xschem/3-stage_cs-vco_tb.sch

Circuit: ** sch_path: /home/darunix/gitsandboxes/vco/vco/xschem/3-stage_cs-vco_tb.sch

option SCALE: Scale is set to 1e-06 for instance and model parameters
Doing analysis at TEMP = 27.000000 and TNOM = 27.000000

Warning: v1: no DC value, transient time 0 value used

Initial Transient Solution
--------------------------

Node                                   Voltage
----                                   -------
int_out_x1_3                       6.80528e-09
int_net1_x1_1                              1.8
int_net2_x1_2                                0
int_vctrl_x1_4                               0
net1                                       1.8
net2                                         0
out                                6.80528e-09
vctrl                                        0
vdd                                        1.8
int_vdd_x2_1                               1.8
int_out_x2_2                       6.80528e-09
int_gnd_x2_3                                 0
int_gnd_x3_2                                 0
int_out_x3_1                       6.80528e-09
int_gnd_x3_3                                 0
int_buf1_out_x3_6                  2.60627e-09
int_vdd_x3_5                               1.8
int_vdd_x3_4                               1.8
buf1_out                           2.60627e-09
int_buf1_out_x4_1                  2.60627e-09
int_vdd_x4_5                               1.8
int_vdd_x4_4                               1.8
int_gnd_x4_2                                 0
int_gnd_x4_3                                 0
int_net4_x4_6                       4.9501e-09
net4                                4.9501e-09
int_vdd_x5_5                               1.8
int_net5_x5_6                       4.9501e-09
int_vdd_x5_4                               1.8
int_net4_x5_1                       4.9501e-09
int_gnd_x5_2                                 0
int_gnd_x5_3                                 0
net5                                4.9501e-09
int_net3_x6_6                       4.9501e-09
int_gnd_x6_2                                 0
int_gnd_x6_3                                 0
int_net5_x6_1                       4.9501e-09
int_vdd_x6_5                               1.8
int_vdd_x6_4                               1.8
net3                                4.9501e-09
int_vdd_x7_5                               1.8
int_buf16_out_x7_6                  4.9501e-09
int_vdd_x7_4                               1.8
int_gnd_x7_2                                 0
int_gnd_x7_3                                 0
int_net3_x7_1                       4.9501e-09
buf16_out                           4.9501e-09
v1#branch                                    0
x7:x#branch                                  0
x7:vpwr#branch                    -8.17036e-12
x7:vpb#branch                     -4.15221e-11
x7:vnb#branch                       7.2401e-12
x7:vgnd#branch                     4.24513e-11
x7:a#branch                                  0
x6:x#branch                                  0
x6:vpwr#branch                    -4.08518e-12
x6:vpb#branch                     -2.07608e-11
x6:vnb#branch                      3.62005e-12
x6:vgnd#branch                     2.12257e-11
x6:a#branch                                  0
x5:x#branch                                  0
x5:vpwr#branch                    -2.04259e-12
x5:vpb#branch                     -1.03803e-11
x5:vnb#branch                      1.81003e-12
x5:vgnd#branch                     1.06128e-11
x5:a#branch                                  0
x4:x#branch                                  0
x4:vpwr#branch                     -1.9439e-12
x4:vpb#branch                      -5.1902e-12
x4:vnb#branch                      1.81003e-12
x4:vgnd#branch                     5.32401e-12
x4:a#branch                                  0
x3:x#branch                                  0
x3:vpwr#branch                    -2.01847e-12
x3:vpb#branch                     -1.80997e-12
x3:vnb#branch                      1.81009e-12
x3:vgnd#branch                     2.01837e-12
x3:a#branch                                  0
x2:vss#branch                    -4.56262e-210
x2:clk#branch                                0
x2:vdd#branch                      4.96131e-15
vmeas_current_gnd#branch           3.41127e-05
vmeas_current_vdd#branch           3.41127e-05
v2#branch                         -3.41128e-05
x1:vctrl#branch                              0
x1:out#branch                                0
x1:vss#branch                      3.41127e-05
x1:vdd#branch                     -3.41127e-05


No. of Data Rows : 7020

  Measurements for Transient Analysis

tvco_outside_while  =  2.590348e-10 targ=  1.458280e-08 trig=  1.432376e-08
fvco_outside_while  =  3.86048e+09
supply_current_rms_outside_while=   5.67402e-04 from=  1.00000e-08 to=  4.00000e-08
ground_current_rms_outside_while=   5.24414e-04 from=  1.00000e-08 to=  4.00000e-08
vctrl_avg_outside_while=  1.600000e+00 from=  1.000000e-08 to=  2.000500e-08
vhigh_outside_while =  1.923034e+00 at=  1.208500e-08
vlow_outside_while  =  -8.127742e-02 at=  1.585500e-08
peak_to_peak_outside_while=  2.00431e+00
supply_current_rms  =   5.57819e-04 from=  0.00000e+00 to=  7.00000e-08

binary raw file "3-stage_cs-vco_tb_WITH_APPENDWRITE.raw"
Reset re-loads circuit ** sch_path: /home/darunix/gitsandboxes/vco/vco/xschem/3-stage_cs-vco_tb.sch

Circuit: ** sch_path: /home/darunix/gitsandboxes/vco/vco/xschem/3-stage_cs-vco_tb.sch

option SCALE: Scale is set to 1e-06 for instance and model parameters
Doing analysis at TEMP = 27.000000 and TNOM = 27.000000

Warning: v1: no DC value, transient time 0 value used

Initial Transient Solution
--------------------------

Node                                   Voltage
----                                   -------
int_out_x1_3                       6.80528e-09
int_net1_x1_1                              1.8
int_net2_x1_2                                0
int_vctrl_x1_4                               0
net1                                       1.8
net2                                         0
out                                6.80528e-09
vctrl                                        0
vdd                                        1.8
int_vdd_x2_1                               1.8
int_out_x2_2                       6.80528e-09
int_gnd_x2_3                                 0
int_gnd_x3_2                                 0
int_out_x3_1                       6.80528e-09
int_gnd_x3_3                                 0
int_buf1_out_x3_6                  2.60627e-09
int_vdd_x3_5                               1.8
int_vdd_x3_4                               1.8
buf1_out                           2.60627e-09
int_buf1_out_x4_1                  2.60627e-09
int_vdd_x4_5                               1.8
int_vdd_x4_4                               1.8
int_gnd_x4_2                                 0
int_gnd_x4_3                                 0
int_net4_x4_6                       4.9501e-09
net4                                4.9501e-09
int_vdd_x5_5                               1.8
int_net5_x5_6                       4.9501e-09
int_vdd_x5_4                               1.8
int_net4_x5_1                       4.9501e-09
int_gnd_x5_2                                 0
int_gnd_x5_3                                 0
net5                                4.9501e-09
int_net3_x6_6                       4.9501e-09
int_gnd_x6_2                                 0
int_gnd_x6_3                                 0
int_net5_x6_1                       4.9501e-09
int_vdd_x6_5                               1.8
int_vdd_x6_4                               1.8
net3                                4.9501e-09
int_vdd_x7_5                               1.8
int_buf16_out_x7_6                  4.9501e-09
int_vdd_x7_4                               1.8
int_gnd_x7_2                                 0
int_gnd_x7_3                                 0
int_net3_x7_1                       4.9501e-09
buf16_out                           4.9501e-09
v1#branch                                    0
x7:x#branch                                  0
x7:vpwr#branch                    -8.17036e-12
x7:vpb#branch                     -4.15221e-11
x7:vnb#branch                       7.2401e-12
x7:vgnd#branch                     4.24513e-11
x7:a#branch                                  0
x6:x#branch                                  0
x6:vpwr#branch                    -4.08518e-12
x6:vpb#branch                     -2.07608e-11
x6:vnb#branch                      3.62005e-12
x6:vgnd#branch                     2.12257e-11
x6:a#branch                                  0
x5:x#branch                                  0
x5:vpwr#branch                    -2.04259e-12
x5:vpb#branch                     -1.03803e-11
x5:vnb#branch                      1.81003e-12
x5:vgnd#branch                     1.06128e-11
x5:a#branch                                  0
x4:x#branch                                  0
x4:vpwr#branch                     -1.9439e-12
x4:vpb#branch                      -5.1902e-12
x4:vnb#branch                      1.81003e-12
x4:vgnd#branch                     5.32401e-12
x4:a#branch                                  0
x3:x#branch                                  0
x3:vpwr#branch                    -2.01847e-12
x3:vpb#branch                     -1.80997e-12
x3:vnb#branch                      1.81009e-12
x3:vgnd#branch                     2.01837e-12
x3:a#branch                                  0
x2:vss#branch                    -4.56262e-210
x2:clk#branch                                0
x2:vdd#branch                      4.96131e-15
vmeas_current_gnd#branch           3.41127e-05
vmeas_current_vdd#branch           3.41127e-05
v2#branch                         -3.41128e-05
x1:vctrl#branch                              0
x1:out#branch                                0
x1:vss#branch                      3.41127e-05
x1:vdd#branch                     -3.41127e-05


No. of Data Rows : 7020

  Measurements for Transient Analysis

tvco_outside_while  =  2.593316e-10 targ=  1.457705e-08 trig=  1.431772e-08
fvco_outside_while  =  3.85607e+09
supply_current_rms_outside_while=   5.58777e-04 from=  1.00000e-08 to=  4.00000e-08
ground_current_rms_outside_while=   5.24734e-04 from=  1.00000e-08 to=  4.00000e-08
vctrl_avg_outside_while=  1.700000e+00 from=  1.000000e-08 to=  2.000500e-08
vhigh_outside_while =  1.923047e+00 at=  1.052500e-08
vlow_outside_while  =  -8.123211e-02 at=  1.999500e-08
peak_to_peak_outside_while=  2.00428e+00
supply_current_rms  =   5.48928e-04 from=  0.00000e+00 to=  7.00000e-08

binary raw file "3-stage_cs-vco_tb_WITH_APPENDWRITE.raw"
Reset re-loads circuit ** sch_path: /home/darunix/gitsandboxes/vco/vco/xschem/3-stage_cs-vco_tb.sch

Circuit: ** sch_path: /home/darunix/gitsandboxes/vco/vco/xschem/3-stage_cs-vco_tb.sch

option SCALE: Scale is set to 1e-06 for instance and model parameters
Doing analysis at TEMP = 27.000000 and TNOM = 27.000000

Warning: v1: no DC value, transient time 0 value used

Initial Transient Solution
--------------------------

Node                                   Voltage
----                                   -------
int_out_x1_3                       6.80528e-09
int_net1_x1_1                              1.8
int_net2_x1_2                                0
int_vctrl_x1_4                               0
net1                                       1.8
net2                                         0
out                                6.80528e-09
vctrl                                        0
vdd                                        1.8
int_vdd_x2_1                               1.8
int_out_x2_2                       6.80528e-09
int_gnd_x2_3                                 0
int_gnd_x3_2                                 0
int_out_x3_1                       6.80528e-09
int_gnd_x3_3                                 0
int_buf1_out_x3_6                  2.60627e-09
int_vdd_x3_5                               1.8
int_vdd_x3_4                               1.8
buf1_out                           2.60627e-09
int_buf1_out_x4_1                  2.60627e-09
int_vdd_x4_5                               1.8
int_vdd_x4_4                               1.8
int_gnd_x4_2                                 0
int_gnd_x4_3                                 0
int_net4_x4_6                       4.9501e-09
net4                                4.9501e-09
int_vdd_x5_5                               1.8
int_net5_x5_6                       4.9501e-09
int_vdd_x5_4                               1.8
int_net4_x5_1                       4.9501e-09
int_gnd_x5_2                                 0
int_gnd_x5_3                                 0
net5                                4.9501e-09
int_net3_x6_6                       4.9501e-09
int_gnd_x6_2                                 0
int_gnd_x6_3                                 0
int_net5_x6_1                       4.9501e-09
int_vdd_x6_5                               1.8
int_vdd_x6_4                               1.8
net3                                4.9501e-09
int_vdd_x7_5                               1.8
int_buf16_out_x7_6                  4.9501e-09
int_vdd_x7_4                               1.8
int_gnd_x7_2                                 0
int_gnd_x7_3                                 0
int_net3_x7_1                       4.9501e-09
buf16_out                           4.9501e-09
v1#branch                                    0
x7:x#branch                                  0
x7:vpwr#branch                    -8.17036e-12
x7:vpb#branch                     -4.15221e-11
x7:vnb#branch                       7.2401e-12
x7:vgnd#branch                     4.24513e-11
x7:a#branch                                  0
x6:x#branch                                  0
x6:vpwr#branch                    -4.08518e-12
x6:vpb#branch                     -2.07608e-11
x6:vnb#branch                      3.62005e-12
x6:vgnd#branch                     2.12257e-11
x6:a#branch                                  0
x5:x#branch                                  0
x5:vpwr#branch                    -2.04259e-12
x5:vpb#branch                     -1.03803e-11
x5:vnb#branch                      1.81003e-12
x5:vgnd#branch                     1.06128e-11
x5:a#branch                                  0
x4:x#branch                                  0
x4:vpwr#branch                     -1.9439e-12
x4:vpb#branch                      -5.1902e-12
x4:vnb#branch                      1.81003e-12
x4:vgnd#branch                     5.32401e-12
x4:a#branch                                  0
x3:x#branch                                  0
x3:vpwr#branch                    -2.01847e-12
x3:vpb#branch                     -1.80997e-12
x3:vnb#branch                      1.81009e-12
x3:vgnd#branch                     2.01837e-12
x3:a#branch                                  0
x2:vss#branch                    -4.56262e-210
x2:clk#branch                                0
x2:vdd#branch                      4.96131e-15
vmeas_current_gnd#branch           3.41127e-05
vmeas_current_vdd#branch           3.41127e-05
v2#branch                         -3.41128e-05
x1:vctrl#branch                              0
x1:out#branch                                0
x1:vss#branch                      3.41127e-05
x1:vdd#branch                     -3.41127e-05


No. of Data Rows : 7020

  Measurements for Transient Analysis

tvco_outside_while  =  2.588883e-10 targ=  1.457167e-08 trig=  1.431278e-08
fvco_outside_while  =  3.86267e+09
supply_current_rms_outside_while=   5.54318e-04 from=  1.00000e-08 to=  4.00000e-08
ground_current_rms_outside_while=   5.25611e-04 from=  1.00000e-08 to=  4.00000e-08
vctrl_avg_outside_while=  1.800000e+00 from=  1.000000e-08 to=  2.000500e-08
vhigh_outside_while =  1.923054e+00 at=  1.518500e-08
vlow_outside_while  =  -8.121322e-02 at=  1.247500e-08
peak_to_peak_outside_while=  2.00427e+00
supply_current_rms  =   5.43529e-04 from=  0.00000e+00 to=  7.00000e-08

binary raw file "3-stage_cs-vco_tb_WITH_APPENDWRITE.raw"
Doing analysis at TEMP = 27.000000 and TNOM = 27.000000

Warning: v1: no DC value, transient time 0 value used

  Measurements for Transient Analysis

tvco_outside_while  =  2.588883e-10 targ=  1.457167e-08 trig=  1.431278e-08
Original line no.: 0, new internal line no.: 12503:
insertnumber: fails.
  s = ".meas tran fvco_outside_while param=    3.862669028224071e+09   " u="  3.862669028224071e+09  " id=0
fvco_outside_while  =  3.86267e+09
supply_current_rms_outside_while=   5.54318e-04 from=  1.00000e-08 to=  4.00000e-08
ground_current_rms_outside_while=   5.25611e-04 from=  1.00000e-08 to=  4.00000e-08
vctrl_avg_outside_while=  1.800000e+00 from=  1.000000e-08 to=  2.000500e-08
vhigh_outside_while =  1.923054e+00 at=  1.518500e-08
vlow_outside_while  =  -8.121322e-02 at=  1.247500e-08
Original line no.: 0, new internal line no.: 12509:
insertnumber: fails.
  s = ".meas tran peak_to_peak_outside_while param=    2.004267694949307e+00   " u="  2.004267694949307e+00  " id=0
peak_to_peak_outside_while=  2.00427e+00
supply_current_rms  =   5.43529e-04 from=  0.00000e+00 to=  7.00000e-08


Total analysis time (seconds) = 8.14383

Total CPU time (seconds) = 167.147 

Total DRAM available = 7955.125 MB.
DRAM currently available = 1603.668 MB.
Maximum ngspice program size =  684.789 MB.
Current ngspice program size =  665.348 MB.

Shared ngspice pages =    8.277 MB.
Text (code) pages =    7.879 MB.
Stack = 0 bytes.
Library pages =  657.309 MB.

