
Compatibility modes selected: hs a

Warning: m=xx on .subckt line will override multiplier m hierarchy!


Circuit: ** sch_path: /home/darunix/gitsandboxes/vco/vco/xschem/3-stage_cs-vco_tb.sch

option SCALE: Scale is set to 1e-06 for instance and model parameters
Reset re-loads circuit ** sch_path: /home/darunix/gitsandboxes/vco/vco/xschem/3-stage_cs-vco_tb.sch

Circuit: ** sch_path: /home/darunix/gitsandboxes/vco/vco/xschem/3-stage_cs-vco_tb.sch

option SCALE: Scale is set to 1e-06 for instance and model parameters
Reset re-loads circuit ** sch_path: /home/darunix/gitsandboxes/vco/vco/xschem/3-stage_cs-vco_tb.sch

Circuit: ** sch_path: /home/darunix/gitsandboxes/vco/vco/xschem/3-stage_cs-vco_tb.sch

option SCALE: Scale is set to 1e-06 for instance and model parameters
Doing analysis at TEMP = 27.000000 and TNOM = 27.000000

Warning: v1: no DC value, transient time 0 value used

Initial Transient Solution
--------------------------

Node                                   Voltage
----                                   -------
int_net1_x1_1                              1.8
int_net2_x1_2                                0
int_out_x1_3                       6.80528e-09
int_vctrl_x1_4                               0
net1                                       1.8
net2                                         0
out                                6.80528e-09
vctrl                                        0
vdd                                        1.8
int_vdd_x2_1                               1.8
int_out_x2_2                       6.80528e-09
int_gnd_x2_3                                 0
int_gnd_x3_2                                 0
int_out_x3_1                       6.80528e-09
int_gnd_x3_3                                 0
int_buf1_out_x3_6                  2.60627e-09
int_vdd_x3_5                               1.8
int_vdd_x3_4                               1.8
buf1_out                           2.60627e-09
int_buf1_out_x4_1                  2.60627e-09
int_vdd_x4_5                               1.8
int_vdd_x4_4                               1.8
int_gnd_x4_2                                 0
int_gnd_x4_3                                 0
int_net4_x4_6                       4.9501e-09
net4                                4.9501e-09
int_vdd_x5_5                               1.8
int_net5_x5_6                       4.9501e-09
int_vdd_x5_4                               1.8
int_net4_x5_1                       4.9501e-09
int_gnd_x5_2                                 0
int_gnd_x5_3                                 0
net5                                4.9501e-09
int_net3_x6_6                       4.9501e-09
int_gnd_x6_2                                 0
int_gnd_x6_3                                 0
int_net5_x6_1                       4.9501e-09
int_vdd_x6_5                               1.8
int_vdd_x6_4                               1.8
net3                                4.9501e-09
int_vdd_x7_5                               1.8
int_buf16_out_x7_6                  4.9501e-09
int_vdd_x7_4                               1.8
int_gnd_x7_2                                 0
int_gnd_x7_3                                 0
int_net3_x7_1                       4.9501e-09
buf16_out                           4.9501e-09
v1#branch                                    0
x7:x#branch                                  0
x7:vpwr#branch                    -8.17036e-12
x7:vpb#branch                      -4.1522e-11
x7:vnb#branch                       7.2401e-12
x7:vgnd#branch                     4.24513e-11
x7:a#branch                                  0
x6:x#branch                                  0
x6:vpwr#branch                    -4.08518e-12
x6:vpb#branch                     -2.07608e-11
x6:vnb#branch                      3.62005e-12
x6:vgnd#branch                     2.12257e-11
x6:a#branch                                  0
x5:x#branch                                  0
x5:vpwr#branch                    -2.04259e-12
x5:vpb#branch                     -1.03803e-11
x5:vnb#branch                      1.81003e-12
x5:vgnd#branch                     1.06128e-11
x5:a#branch                                  0
x4:x#branch                                  0
x4:vpwr#branch                     -1.9439e-12
x4:vpb#branch                      -5.1902e-12
x4:vnb#branch                      1.81003e-12
x4:vgnd#branch                     5.32401e-12
x4:a#branch                                  0
x3:x#branch                                  0
x3:vpwr#branch                    -2.01847e-12
x3:vpb#branch                     -1.80997e-12
x3:vnb#branch                      1.81009e-12
x3:vgnd#branch                     2.01837e-12
x3:a#branch                                  0
x2:vss#branch                                0
x2:clk#branch                     -4.84676e-27
x2:vdd#branch                      4.96131e-15
vmeas_current_gnd#branch           4.57125e-05
vmeas_current_vdd#branch           4.57125e-05
v2#branch                         -4.57126e-05
x1:vctrl#branch                              0
x1:out#branch                      4.84676e-27
x1:vss#branch                      4.57125e-05
x1:vdd#branch                     -4.57125e-05


No. of Data Rows : 7020

  Measurements for Transient Analysis


Error: measure  tvco_outside_while  (TRIG) : out of interval
 .meas tran tvco_outside_while trig v(out) val=0.5*1.8 rise=50 targ v(out) val=0.5*1.8 rise=51 failed!

Original line no.: 0, new internal line no.: 12503:
Undefined number [tvco_outside_while]
Original line no.: 0, new internal line no.: 12503:
Cannot compute substitute
fvco_outside_while  =   failed
supply_current_rms_outside_while=   1.62553e-05 from=  1.00000e-08 to=  4.00000e-08
ground_current_rms_outside_while=   5.84734e-05 from=  1.00000e-08 to=  4.00000e-08
vctrl_avg_outside_while=  0.000000e+00 from=  1.000000e-08 to=  2.000500e-08
vhigh_outside_while =  6.006177e-06 at=  1.000500e-08
vlow_outside_while  =  -5.981220e-06 at=  1.001500e-08
peak_to_peak_outside_while=  1.19874e-05
supply_current_rms  =   5.51701e-05 from=  0.00000e+00 to=  7.00000e-08

binary raw file "3-stage_cs-vco_tb_WITH_APPENDWRITE.raw"
Reset re-loads circuit ** sch_path: /home/darunix/gitsandboxes/vco/vco/xschem/3-stage_cs-vco_tb.sch

Circuit: ** sch_path: /home/darunix/gitsandboxes/vco/vco/xschem/3-stage_cs-vco_tb.sch

option SCALE: Scale is set to 1e-06 for instance and model parameters
Doing analysis at TEMP = 27.000000 and TNOM = 27.000000

Warning: v1: no DC value, transient time 0 value used

Initial Transient Solution
--------------------------

Node                                   Voltage
----                                   -------
int_net1_x1_1                              1.8
int_net2_x1_2                                0
int_out_x1_3                       6.80528e-09
int_vctrl_x1_4                               0
net1                                       1.8
net2                                         0
out                                6.80528e-09
vctrl                                        0
vdd                                        1.8
int_vdd_x2_1                               1.8
int_out_x2_2                       6.80528e-09
int_gnd_x2_3                                 0
int_gnd_x3_2                                 0
int_out_x3_1                       6.80528e-09
int_gnd_x3_3                                 0
int_buf1_out_x3_6                  2.60627e-09
int_vdd_x3_5                               1.8
int_vdd_x3_4                               1.8
buf1_out                           2.60627e-09
int_buf1_out_x4_1                  2.60627e-09
int_vdd_x4_5                               1.8
int_vdd_x4_4                               1.8
int_gnd_x4_2                                 0
int_gnd_x4_3                                 0
int_net4_x4_6                       4.9501e-09
net4                                4.9501e-09
int_vdd_x5_5                               1.8
int_net5_x5_6                       4.9501e-09
int_vdd_x5_4                               1.8
int_net4_x5_1                       4.9501e-09
int_gnd_x5_2                                 0
int_gnd_x5_3                                 0
net5                                4.9501e-09
int_net3_x6_6                       4.9501e-09
int_gnd_x6_2                                 0
int_gnd_x6_3                                 0
int_net5_x6_1                       4.9501e-09
int_vdd_x6_5                               1.8
int_vdd_x6_4                               1.8
net3                                4.9501e-09
int_vdd_x7_5                               1.8
int_buf16_out_x7_6                  4.9501e-09
int_vdd_x7_4                               1.8
int_gnd_x7_2                                 0
int_gnd_x7_3                                 0
int_net3_x7_1                       4.9501e-09
buf16_out                           4.9501e-09
v1#branch                                    0
x7:x#branch                                  0
x7:vpwr#branch                    -8.17036e-12
x7:vpb#branch                      -4.1522e-11
x7:vnb#branch                       7.2401e-12
x7:vgnd#branch                     4.24513e-11
x7:a#branch                                  0
x6:x#branch                                  0
x6:vpwr#branch                    -4.08518e-12
x6:vpb#branch                     -2.07608e-11
x6:vnb#branch                      3.62005e-12
x6:vgnd#branch                     2.12257e-11
x6:a#branch                                  0
x5:x#branch                                  0
x5:vpwr#branch                    -2.04259e-12
x5:vpb#branch                     -1.03803e-11
x5:vnb#branch                      1.81003e-12
x5:vgnd#branch                     1.06128e-11
x5:a#branch                                  0
x4:x#branch                                  0
x4:vpwr#branch                     -1.9439e-12
x4:vpb#branch                      -5.1902e-12
x4:vnb#branch                      1.81003e-12
x4:vgnd#branch                     5.32401e-12
x4:a#branch                                  0
x3:x#branch                                  0
x3:vpwr#branch                    -2.01847e-12
x3:vpb#branch                     -1.80997e-12
x3:vnb#branch                      1.81009e-12
x3:vgnd#branch                     2.01837e-12
x3:a#branch                                  0
x2:vss#branch                                0
x2:clk#branch                     -4.84676e-27
x2:vdd#branch                      4.96131e-15
vmeas_current_gnd#branch           4.57125e-05
vmeas_current_vdd#branch           4.57125e-05
v2#branch                         -4.57126e-05
x1:vctrl#branch                              0
x1:out#branch                      4.84676e-27
x1:vss#branch                      4.57125e-05
x1:vdd#branch                     -4.57125e-05


No. of Data Rows : 7020

  Measurements for Transient Analysis


Error: measure  tvco_outside_while  (TRIG) : out of interval
 .meas tran tvco_outside_while trig v(out) val=0.5*1.8 rise=50 targ v(out) val=0.5*1.8 rise=51 failed!

Original line no.: 0, new internal line no.: 12503:
Undefined number [tvco_outside_while]
Original line no.: 0, new internal line no.: 12503:
Cannot compute substitute
fvco_outside_while  =   failed
supply_current_rms_outside_while=   1.59364e-05 from=  1.00000e-08 to=  4.00000e-08
ground_current_rms_outside_while=   1.70511e-05 from=  1.00000e-08 to=  4.00000e-08
vctrl_avg_outside_while=  1.000000e-01 from=  1.000000e-08 to=  2.000500e-08
vhigh_outside_while =  4.275696e-06 at=  1.000500e-08
vlow_outside_while  =  -4.255813e-06 at=  1.001500e-08
peak_to_peak_outside_while=  8.53151e-06
supply_current_rms  =   5.45065e-05 from=  0.00000e+00 to=  7.00000e-08

binary raw file "3-stage_cs-vco_tb_WITH_APPENDWRITE.raw"
Reset re-loads circuit ** sch_path: /home/darunix/gitsandboxes/vco/vco/xschem/3-stage_cs-vco_tb.sch

Circuit: ** sch_path: /home/darunix/gitsandboxes/vco/vco/xschem/3-stage_cs-vco_tb.sch

option SCALE: Scale is set to 1e-06 for instance and model parameters
Doing analysis at TEMP = 27.000000 and TNOM = 27.000000

Warning: v1: no DC value, transient time 0 value used

Initial Transient Solution
--------------------------

Node                                   Voltage
----                                   -------
int_net1_x1_1                              1.8
int_net2_x1_2                                0
int_out_x1_3                       6.80528e-09
int_vctrl_x1_4                               0
net1                                       1.8
net2                                         0
out                                6.80528e-09
vctrl                                        0
vdd                                        1.8
int_vdd_x2_1                               1.8
int_out_x2_2                       6.80528e-09
int_gnd_x2_3                                 0
int_gnd_x3_2                                 0
int_out_x3_1                       6.80528e-09
int_gnd_x3_3                                 0
int_buf1_out_x3_6                  2.60627e-09
int_vdd_x3_5                               1.8
int_vdd_x3_4                               1.8
buf1_out                           2.60627e-09
int_buf1_out_x4_1                  2.60627e-09
int_vdd_x4_5                               1.8
int_vdd_x4_4                               1.8
int_gnd_x4_2                                 0
int_gnd_x4_3                                 0
int_net4_x4_6                       4.9501e-09
net4                                4.9501e-09
int_vdd_x5_5                               1.8
int_net5_x5_6                       4.9501e-09
int_vdd_x5_4                               1.8
int_net4_x5_1                       4.9501e-09
int_gnd_x5_2                                 0
int_gnd_x5_3                                 0
net5                                4.9501e-09
int_net3_x6_6                       4.9501e-09
int_gnd_x6_2                                 0
int_gnd_x6_3                                 0
int_net5_x6_1                       4.9501e-09
int_vdd_x6_5                               1.8
int_vdd_x6_4                               1.8
net3                                4.9501e-09
int_vdd_x7_5                               1.8
int_buf16_out_x7_6                  4.9501e-09
int_vdd_x7_4                               1.8
int_gnd_x7_2                                 0
int_gnd_x7_3                                 0
int_net3_x7_1                       4.9501e-09
buf16_out                           4.9501e-09
v1#branch                                    0
x7:x#branch                                  0
x7:vpwr#branch                    -8.17036e-12
x7:vpb#branch                      -4.1522e-11
x7:vnb#branch                       7.2401e-12
x7:vgnd#branch                     4.24513e-11
x7:a#branch                                  0
x6:x#branch                                  0
x6:vpwr#branch                    -4.08518e-12
x6:vpb#branch                     -2.07608e-11
x6:vnb#branch                      3.62005e-12
x6:vgnd#branch                     2.12257e-11
x6:a#branch                                  0
x5:x#branch                                  0
x5:vpwr#branch                    -2.04259e-12
x5:vpb#branch                     -1.03803e-11
x5:vnb#branch                      1.81003e-12
x5:vgnd#branch                     1.06128e-11
x5:a#branch                                  0
x4:x#branch                                  0
x4:vpwr#branch                     -1.9439e-12
x4:vpb#branch                      -5.1902e-12
x4:vnb#branch                      1.81003e-12
x4:vgnd#branch                     5.32401e-12
x4:a#branch                                  0
x3:x#branch                                  0
x3:vpwr#branch                    -2.01847e-12
x3:vpb#branch                     -1.80997e-12
x3:vnb#branch                      1.81009e-12
x3:vgnd#branch                     2.01837e-12
x3:a#branch                                  0
x2:vss#branch                                0
x2:clk#branch                     -4.84676e-27
x2:vdd#branch                      4.96131e-15
vmeas_current_gnd#branch           4.57125e-05
vmeas_current_vdd#branch           4.57125e-05
v2#branch                         -4.57126e-05
x1:vctrl#branch                              0
x1:out#branch                      4.84676e-27
x1:vss#branch                      4.57125e-05
x1:vdd#branch                     -4.57125e-05


No. of Data Rows : 7020

  Measurements for Transient Analysis


Error: measure  tvco_outside_while  (TRIG) : out of interval
 .meas tran tvco_outside_while trig v(out) val=0.5*1.8 rise=50 targ v(out) val=0.5*1.8 rise=51 failed!

Original line no.: 0, new internal line no.: 12503:
Undefined number [tvco_outside_while]
Original line no.: 0, new internal line no.: 12503:
Cannot compute substitute
fvco_outside_while  =   failed
supply_current_rms_outside_while=   1.39922e-05 from=  1.00000e-08 to=  4.00000e-08
ground_current_rms_outside_while=   2.10555e-05 from=  1.00000e-08 to=  4.00000e-08
vctrl_avg_outside_while=  2.000000e-01 from=  1.000000e-08 to=  2.000500e-08
vhigh_outside_while =  1.140470e-06 at=  1.001500e-08
vlow_outside_while  =  -1.128042e-06 at=  1.000500e-08
peak_to_peak_outside_while=  2.26851e-06
supply_current_rms  =   5.35560e-05 from=  0.00000e+00 to=  7.00000e-08

binary raw file "3-stage_cs-vco_tb_WITH_APPENDWRITE.raw"
Reset re-loads circuit ** sch_path: /home/darunix/gitsandboxes/vco/vco/xschem/3-stage_cs-vco_tb.sch

Circuit: ** sch_path: /home/darunix/gitsandboxes/vco/vco/xschem/3-stage_cs-vco_tb.sch

option SCALE: Scale is set to 1e-06 for instance and model parameters
Doing analysis at TEMP = 27.000000 and TNOM = 27.000000

Warning: v1: no DC value, transient time 0 value used

Initial Transient Solution
--------------------------

Node                                   Voltage
----                                   -------
int_net1_x1_1                              1.8
int_net2_x1_2                                0
int_out_x1_3                       6.80528e-09
int_vctrl_x1_4                               0
net1                                       1.8
net2                                         0
out                                6.80528e-09
vctrl                                        0
vdd                                        1.8
int_vdd_x2_1                               1.8
int_out_x2_2                       6.80528e-09
int_gnd_x2_3                                 0
int_gnd_x3_2                                 0
int_out_x3_1                       6.80528e-09
int_gnd_x3_3                                 0
int_buf1_out_x3_6                  2.60627e-09
int_vdd_x3_5                               1.8
int_vdd_x3_4                               1.8
buf1_out                           2.60627e-09
int_buf1_out_x4_1                  2.60627e-09
int_vdd_x4_5                               1.8
int_vdd_x4_4                               1.8
int_gnd_x4_2                                 0
int_gnd_x4_3                                 0
int_net4_x4_6                       4.9501e-09
net4                                4.9501e-09
int_vdd_x5_5                               1.8
int_net5_x5_6                       4.9501e-09
int_vdd_x5_4                               1.8
int_net4_x5_1                       4.9501e-09
int_gnd_x5_2                                 0
int_gnd_x5_3                                 0
net5                                4.9501e-09
int_net3_x6_6                       4.9501e-09
int_gnd_x6_2                                 0
int_gnd_x6_3                                 0
int_net5_x6_1                       4.9501e-09
int_vdd_x6_5                               1.8
int_vdd_x6_4                               1.8
net3                                4.9501e-09
int_vdd_x7_5                               1.8
int_buf16_out_x7_6                  4.9501e-09
int_vdd_x7_4                               1.8
int_gnd_x7_2                                 0
int_gnd_x7_3                                 0
int_net3_x7_1                       4.9501e-09
buf16_out                           4.9501e-09
v1#branch                                    0
x7:x#branch                                  0
x7:vpwr#branch                    -8.17036e-12
x7:vpb#branch                      -4.1522e-11
x7:vnb#branch                       7.2401e-12
x7:vgnd#branch                     4.24513e-11
x7:a#branch                                  0
x6:x#branch                                  0
x6:vpwr#branch                    -4.08518e-12
x6:vpb#branch                     -2.07608e-11
x6:vnb#branch                      3.62005e-12
x6:vgnd#branch                     2.12257e-11
x6:a#branch                                  0
x5:x#branch                                  0
x5:vpwr#branch                    -2.04259e-12
x5:vpb#branch                     -1.03803e-11
x5:vnb#branch                      1.81003e-12
x5:vgnd#branch                     1.06128e-11
x5:a#branch                                  0
x4:x#branch                                  0
x4:vpwr#branch                     -1.9439e-12
x4:vpb#branch                      -5.1902e-12
x4:vnb#branch                      1.81003e-12
x4:vgnd#branch                     5.32401e-12
x4:a#branch                                  0
x3:x#branch                                  0
x3:vpwr#branch                    -2.01847e-12
x3:vpb#branch                     -1.80997e-12
x3:vnb#branch                      1.81009e-12
x3:vgnd#branch                     2.01837e-12
x3:a#branch                                  0
x2:vss#branch                                0
x2:clk#branch                     -4.84676e-27
x2:vdd#branch                      4.96131e-15
vmeas_current_gnd#branch           4.57125e-05
vmeas_current_vdd#branch           4.57125e-05
v2#branch                         -4.57126e-05
x1:vctrl#branch                              0
x1:out#branch                      4.84676e-27
x1:vss#branch                      4.57125e-05
x1:vdd#branch                     -4.57125e-05


No. of Data Rows : 7020

  Measurements for Transient Analysis


Error: measure  tvco_outside_while  (TRIG) : out of interval
 .meas tran tvco_outside_while trig v(out) val=0.5*1.8 rise=50 targ v(out) val=0.5*1.8 rise=51 failed!

Original line no.: 0, new internal line no.: 12503:
Undefined number [tvco_outside_while]
Original line no.: 0, new internal line no.: 12503:
Cannot compute substitute
fvco_outside_while  =   failed
supply_current_rms_outside_while=   2.39965e-05 from=  1.00000e-08 to=  4.00000e-08
ground_current_rms_outside_while=   4.07788e-05 from=  1.00000e-08 to=  4.00000e-08
vctrl_avg_outside_while=  3.000000e-01 from=  1.000000e-08 to=  2.000500e-08
vhigh_outside_while =  3.376966e-06 at=  1.000500e-08
vlow_outside_while  =  -3.356315e-06 at=  1.001500e-08
peak_to_peak_outside_while=  6.73328e-06
supply_current_rms  =   5.66274e-05 from=  0.00000e+00 to=  7.00000e-08

binary raw file "3-stage_cs-vco_tb_WITH_APPENDWRITE.raw"
Reset re-loads circuit ** sch_path: /home/darunix/gitsandboxes/vco/vco/xschem/3-stage_cs-vco_tb.sch

Circuit: ** sch_path: /home/darunix/gitsandboxes/vco/vco/xschem/3-stage_cs-vco_tb.sch

option SCALE: Scale is set to 1e-06 for instance and model parameters
Doing analysis at TEMP = 27.000000 and TNOM = 27.000000

Warning: v1: no DC value, transient time 0 value used

Initial Transient Solution
--------------------------

Node                                   Voltage
----                                   -------
int_net1_x1_1                              1.8
int_net2_x1_2                                0
int_out_x1_3                       6.80528e-09
int_vctrl_x1_4                               0
net1                                       1.8
net2                                         0
out                                6.80528e-09
vctrl                                        0
vdd                                        1.8
int_vdd_x2_1                               1.8
int_out_x2_2                       6.80528e-09
int_gnd_x2_3                                 0
int_gnd_x3_2                                 0
int_out_x3_1                       6.80528e-09
int_gnd_x3_3                                 0
int_buf1_out_x3_6                  2.60627e-09
int_vdd_x3_5                               1.8
int_vdd_x3_4                               1.8
buf1_out                           2.60627e-09
int_buf1_out_x4_1                  2.60627e-09
int_vdd_x4_5                               1.8
int_vdd_x4_4                               1.8
int_gnd_x4_2                                 0
int_gnd_x4_3                                 0
int_net4_x4_6                       4.9501e-09
net4                                4.9501e-09
int_vdd_x5_5                               1.8
int_net5_x5_6                       4.9501e-09
int_vdd_x5_4                               1.8
int_net4_x5_1                       4.9501e-09
int_gnd_x5_2                                 0
int_gnd_x5_3                                 0
net5                                4.9501e-09
int_net3_x6_6                       4.9501e-09
int_gnd_x6_2                                 0
int_gnd_x6_3                                 0
int_net5_x6_1                       4.9501e-09
int_vdd_x6_5                               1.8
int_vdd_x6_4                               1.8
net3                                4.9501e-09
int_vdd_x7_5                               1.8
int_buf16_out_x7_6                  4.9501e-09
int_vdd_x7_4                               1.8
int_gnd_x7_2                                 0
int_gnd_x7_3                                 0
int_net3_x7_1                       4.9501e-09
buf16_out                           4.9501e-09
v1#branch                                    0
x7:x#branch                                  0
x7:vpwr#branch                    -8.17036e-12
x7:vpb#branch                      -4.1522e-11
x7:vnb#branch                       7.2401e-12
x7:vgnd#branch                     4.24513e-11
x7:a#branch                                  0
x6:x#branch                                  0
x6:vpwr#branch                    -4.08518e-12
x6:vpb#branch                     -2.07608e-11
x6:vnb#branch                      3.62005e-12
x6:vgnd#branch                     2.12257e-11
x6:a#branch                                  0
x5:x#branch                                  0
x5:vpwr#branch                    -2.04259e-12
x5:vpb#branch                     -1.03803e-11
x5:vnb#branch                      1.81003e-12
x5:vgnd#branch                     1.06128e-11
x5:a#branch                                  0
x4:x#branch                                  0
x4:vpwr#branch                     -1.9439e-12
x4:vpb#branch                      -5.1902e-12
x4:vnb#branch                      1.81003e-12
x4:vgnd#branch                     5.32401e-12
x4:a#branch                                  0
x3:x#branch                                  0
x3:vpwr#branch                    -2.01847e-12
x3:vpb#branch                     -1.80997e-12
x3:vnb#branch                      1.81009e-12
x3:vgnd#branch                     2.01837e-12
x3:a#branch                                  0
x2:vss#branch                                0
x2:clk#branch                     -4.84676e-27
x2:vdd#branch                      4.96131e-15
vmeas_current_gnd#branch           4.57125e-05
vmeas_current_vdd#branch           4.57125e-05
v2#branch                         -4.57126e-05
x1:vctrl#branch                              0
x1:out#branch                      4.84676e-27
x1:vss#branch                      4.57125e-05
x1:vdd#branch                     -4.57125e-05


No. of Data Rows : 7020

  Measurements for Transient Analysis


Error: measure  tvco_outside_while  (TRIG) : out of interval
 .meas tran tvco_outside_while trig v(out) val=0.5*1.8 rise=50 targ v(out) val=0.5*1.8 rise=51 failed!

Original line no.: 0, new internal line no.: 12503:
Undefined number [tvco_outside_while]
Original line no.: 0, new internal line no.: 12503:
Cannot compute substitute
fvco_outside_while  =   failed
supply_current_rms_outside_while=   2.19121e-05 from=  1.00000e-08 to=  4.00000e-08
ground_current_rms_outside_while=   2.27630e-05 from=  1.00000e-08 to=  4.00000e-08
vctrl_avg_outside_while=  4.000000e-01 from=  1.000000e-08 to=  2.000500e-08
vhigh_outside_while =  2.056711e-06 at=  1.000500e-08
vlow_outside_while  =  -2.040387e-06 at=  1.001500e-08
peak_to_peak_outside_while=  4.09710e-06
supply_current_rms  =   5.59314e-05 from=  0.00000e+00 to=  7.00000e-08

binary raw file "3-stage_cs-vco_tb_WITH_APPENDWRITE.raw"
Reset re-loads circuit ** sch_path: /home/darunix/gitsandboxes/vco/vco/xschem/3-stage_cs-vco_tb.sch

Circuit: ** sch_path: /home/darunix/gitsandboxes/vco/vco/xschem/3-stage_cs-vco_tb.sch

option SCALE: Scale is set to 1e-06 for instance and model parameters
Doing analysis at TEMP = 27.000000 and TNOM = 27.000000

Warning: v1: no DC value, transient time 0 value used

Initial Transient Solution
--------------------------

Node                                   Voltage
----                                   -------
int_net1_x1_1                              1.8
int_net2_x1_2                                0
int_out_x1_3                       6.80528e-09
int_vctrl_x1_4                               0
net1                                       1.8
net2                                         0
out                                6.80528e-09
vctrl                                        0
vdd                                        1.8
int_vdd_x2_1                               1.8
int_out_x2_2                       6.80528e-09
int_gnd_x2_3                                 0
int_gnd_x3_2                                 0
int_out_x3_1                       6.80528e-09
int_gnd_x3_3                                 0
int_buf1_out_x3_6                  2.60627e-09
int_vdd_x3_5                               1.8
int_vdd_x3_4                               1.8
buf1_out                           2.60627e-09
int_buf1_out_x4_1                  2.60627e-09
int_vdd_x4_5                               1.8
int_vdd_x4_4                               1.8
int_gnd_x4_2                                 0
int_gnd_x4_3                                 0
int_net4_x4_6                       4.9501e-09
net4                                4.9501e-09
int_vdd_x5_5                               1.8
int_net5_x5_6                       4.9501e-09
int_vdd_x5_4                               1.8
int_net4_x5_1                       4.9501e-09
int_gnd_x5_2                                 0
int_gnd_x5_3                                 0
net5                                4.9501e-09
int_net3_x6_6                       4.9501e-09
int_gnd_x6_2                                 0
int_gnd_x6_3                                 0
int_net5_x6_1                       4.9501e-09
int_vdd_x6_5                               1.8
int_vdd_x6_4                               1.8
net3                                4.9501e-09
int_vdd_x7_5                               1.8
int_buf16_out_x7_6                  4.9501e-09
int_vdd_x7_4                               1.8
int_gnd_x7_2                                 0
int_gnd_x7_3                                 0
int_net3_x7_1                       4.9501e-09
buf16_out                           4.9501e-09
v1#branch                                    0
x7:x#branch                                  0
x7:vpwr#branch                    -8.17036e-12
x7:vpb#branch                      -4.1522e-11
x7:vnb#branch                       7.2401e-12
x7:vgnd#branch                     4.24513e-11
x7:a#branch                                  0
x6:x#branch                                  0
x6:vpwr#branch                    -4.08518e-12
x6:vpb#branch                     -2.07608e-11
x6:vnb#branch                      3.62005e-12
x6:vgnd#branch                     2.12257e-11
x6:a#branch                                  0
x5:x#branch                                  0
x5:vpwr#branch                    -2.04259e-12
x5:vpb#branch                     -1.03803e-11
x5:vnb#branch                      1.81003e-12
x5:vgnd#branch                     1.06128e-11
x5:a#branch                                  0
x4:x#branch                                  0
x4:vpwr#branch                     -1.9439e-12
x4:vpb#branch                      -5.1902e-12
x4:vnb#branch                      1.81003e-12
x4:vgnd#branch                     5.32401e-12
x4:a#branch                                  0
x3:x#branch                                  0
x3:vpwr#branch                    -2.01847e-12
x3:vpb#branch                     -1.80997e-12
x3:vnb#branch                      1.81009e-12
x3:vgnd#branch                     2.01837e-12
x3:a#branch                                  0
x2:vss#branch                                0
x2:clk#branch                     -4.84676e-27
x2:vdd#branch                      4.96131e-15
vmeas_current_gnd#branch           4.57125e-05
vmeas_current_vdd#branch           4.57125e-05
v2#branch                         -4.57126e-05
x1:vctrl#branch                              0
x1:out#branch                      4.84676e-27
x1:vss#branch                      4.57125e-05
x1:vdd#branch                     -4.57125e-05


No. of Data Rows : 7020

  Measurements for Transient Analysis


Error: measure  tvco_outside_while  (TRIG) : out of interval
 .meas tran tvco_outside_while trig v(out) val=0.5*1.8 rise=50 targ v(out) val=0.5*1.8 rise=51 failed!

Original line no.: 0, new internal line no.: 12503:
Undefined number [tvco_outside_while]
Original line no.: 0, new internal line no.: 12503:
Cannot compute substitute
fvco_outside_while  =   failed
supply_current_rms_outside_while=   9.46547e-05 from=  1.00000e-08 to=  4.00000e-08
ground_current_rms_outside_while=   8.02524e-05 from=  1.00000e-08 to=  4.00000e-08
vctrl_avg_outside_while=  5.000000e-01 from=  1.000000e-08 to=  2.000500e-08
vhigh_outside_while =  2.251210e-01 at=  1.588500e-08
vlow_outside_while  =  -5.922048e-02 at=  1.583500e-08
peak_to_peak_outside_while=  2.84342e-01
supply_current_rms  =   1.16729e-04 from=  0.00000e+00 to=  7.00000e-08

binary raw file "3-stage_cs-vco_tb_WITH_APPENDWRITE.raw"
Reset re-loads circuit ** sch_path: /home/darunix/gitsandboxes/vco/vco/xschem/3-stage_cs-vco_tb.sch

Circuit: ** sch_path: /home/darunix/gitsandboxes/vco/vco/xschem/3-stage_cs-vco_tb.sch

option SCALE: Scale is set to 1e-06 for instance and model parameters
Doing analysis at TEMP = 27.000000 and TNOM = 27.000000

Warning: v1: no DC value, transient time 0 value used

Initial Transient Solution
--------------------------

Node                                   Voltage
----                                   -------
int_net1_x1_1                              1.8
int_net2_x1_2                                0
int_out_x1_3                       6.80528e-09
int_vctrl_x1_4                               0
net1                                       1.8
net2                                         0
out                                6.80528e-09
vctrl                                        0
vdd                                        1.8
int_vdd_x2_1                               1.8
int_out_x2_2                       6.80528e-09
int_gnd_x2_3                                 0
int_gnd_x3_2                                 0
int_out_x3_1                       6.80528e-09
int_gnd_x3_3                                 0
int_buf1_out_x3_6                  2.60627e-09
int_vdd_x3_5                               1.8
int_vdd_x3_4                               1.8
buf1_out                           2.60627e-09
int_buf1_out_x4_1                  2.60627e-09
int_vdd_x4_5                               1.8
int_vdd_x4_4                               1.8
int_gnd_x4_2                                 0
int_gnd_x4_3                                 0
int_net4_x4_6                       4.9501e-09
net4                                4.9501e-09
int_vdd_x5_5                               1.8
int_net5_x5_6                       4.9501e-09
int_vdd_x5_4                               1.8
int_net4_x5_1                       4.9501e-09
int_gnd_x5_2                                 0
int_gnd_x5_3                                 0
net5                                4.9501e-09
int_net3_x6_6                       4.9501e-09
int_gnd_x6_2                                 0
int_gnd_x6_3                                 0
int_net5_x6_1                       4.9501e-09
int_vdd_x6_5                               1.8
int_vdd_x6_4                               1.8
net3                                4.9501e-09
int_vdd_x7_5                               1.8
int_buf16_out_x7_6                  4.9501e-09
int_vdd_x7_4                               1.8
int_gnd_x7_2                                 0
int_gnd_x7_3                                 0
int_net3_x7_1                       4.9501e-09
buf16_out                           4.9501e-09
v1#branch                                    0
x7:x#branch                                  0
x7:vpwr#branch                    -8.17036e-12
x7:vpb#branch                      -4.1522e-11
x7:vnb#branch                       7.2401e-12
x7:vgnd#branch                     4.24513e-11
x7:a#branch                                  0
x6:x#branch                                  0
x6:vpwr#branch                    -4.08518e-12
x6:vpb#branch                     -2.07608e-11
x6:vnb#branch                      3.62005e-12
x6:vgnd#branch                     2.12257e-11
x6:a#branch                                  0
x5:x#branch                                  0
x5:vpwr#branch                    -2.04259e-12
x5:vpb#branch                     -1.03803e-11
x5:vnb#branch                      1.81003e-12
x5:vgnd#branch                     1.06128e-11
x5:a#branch                                  0
x4:x#branch                                  0
x4:vpwr#branch                     -1.9439e-12
x4:vpb#branch                      -5.1902e-12
x4:vnb#branch                      1.81003e-12
x4:vgnd#branch                     5.32401e-12
x4:a#branch                                  0
x3:x#branch                                  0
x3:vpwr#branch                    -2.01847e-12
x3:vpb#branch                     -1.80997e-12
x3:vnb#branch                      1.81009e-12
x3:vgnd#branch                     2.01837e-12
x3:a#branch                                  0
x2:vss#branch                                0
x2:clk#branch                     -4.84676e-27
x2:vdd#branch                      4.96131e-15
vmeas_current_gnd#branch           4.57125e-05
vmeas_current_vdd#branch           4.57125e-05
v2#branch                         -4.57126e-05
x1:vctrl#branch                              0
x1:out#branch                      4.84676e-27
x1:vss#branch                      4.57125e-05
x1:vdd#branch                     -4.57125e-05


No. of Data Rows : 7020

  Measurements for Transient Analysis


Error: measure  tvco_outside_while  (TRIG) : out of interval
 .meas tran tvco_outside_while trig v(out) val=0.5*1.8 rise=50 targ v(out) val=0.5*1.8 rise=51 failed!

Original line no.: 0, new internal line no.: 12503:
Undefined number [tvco_outside_while]
Original line no.: 0, new internal line no.: 12503:
Cannot compute substitute
fvco_outside_while  =   failed
supply_current_rms_outside_while=   1.45479e-04 from=  1.00000e-08 to=  4.00000e-08
ground_current_rms_outside_while=   9.18971e-05 from=  1.00000e-08 to=  4.00000e-08
vctrl_avg_outside_while=  6.000000e-01 from=  1.000000e-08 to=  2.000500e-08
vhigh_outside_while =  1.928503e+00 at=  1.100500e-08
vlow_outside_while  =  -8.134060e-02 at=  1.005500e-08
peak_to_peak_outside_while=  2.00984e+00
supply_current_rms  =   1.53182e-04 from=  0.00000e+00 to=  7.00000e-08

binary raw file "3-stage_cs-vco_tb_WITH_APPENDWRITE.raw"
Reset re-loads circuit ** sch_path: /home/darunix/gitsandboxes/vco/vco/xschem/3-stage_cs-vco_tb.sch

Circuit: ** sch_path: /home/darunix/gitsandboxes/vco/vco/xschem/3-stage_cs-vco_tb.sch

option SCALE: Scale is set to 1e-06 for instance and model parameters
Doing analysis at TEMP = 27.000000 and TNOM = 27.000000

Warning: v1: no DC value, transient time 0 value used

Initial Transient Solution
--------------------------

Node                                   Voltage
----                                   -------
int_net1_x1_1                              1.8
int_net2_x1_2                                0
int_out_x1_3                       6.80528e-09
int_vctrl_x1_4                               0
net1                                       1.8
net2                                         0
out                                6.80528e-09
vctrl                                        0
vdd                                        1.8
int_vdd_x2_1                               1.8
int_out_x2_2                       6.80528e-09
int_gnd_x2_3                                 0
int_gnd_x3_2                                 0
int_out_x3_1                       6.80528e-09
int_gnd_x3_3                                 0
int_buf1_out_x3_6                  2.60627e-09
int_vdd_x3_5                               1.8
int_vdd_x3_4                               1.8
buf1_out                           2.60627e-09
int_buf1_out_x4_1                  2.60627e-09
int_vdd_x4_5                               1.8
int_vdd_x4_4                               1.8
int_gnd_x4_2                                 0
int_gnd_x4_3                                 0
int_net4_x4_6                       4.9501e-09
net4                                4.9501e-09
int_vdd_x5_5                               1.8
int_net5_x5_6                       4.9501e-09
int_vdd_x5_4                               1.8
int_net4_x5_1                       4.9501e-09
int_gnd_x5_2                                 0
int_gnd_x5_3                                 0
net5                                4.9501e-09
int_net3_x6_6                       4.9501e-09
int_gnd_x6_2                                 0
int_gnd_x6_3                                 0
int_net5_x6_1                       4.9501e-09
int_vdd_x6_5                               1.8
int_vdd_x6_4                               1.8
net3                                4.9501e-09
int_vdd_x7_5                               1.8
int_buf16_out_x7_6                  4.9501e-09
int_vdd_x7_4                               1.8
int_gnd_x7_2                                 0
int_gnd_x7_3                                 0
int_net3_x7_1                       4.9501e-09
buf16_out                           4.9501e-09
v1#branch                                    0
x7:x#branch                                  0
x7:vpwr#branch                    -8.17036e-12
x7:vpb#branch                      -4.1522e-11
x7:vnb#branch                       7.2401e-12
x7:vgnd#branch                     4.24513e-11
x7:a#branch                                  0
x6:x#branch                                  0
x6:vpwr#branch                    -4.08518e-12
x6:vpb#branch                     -2.07608e-11
x6:vnb#branch                      3.62005e-12
x6:vgnd#branch                     2.12257e-11
x6:a#branch                                  0
x5:x#branch                                  0
x5:vpwr#branch                    -2.04259e-12
x5:vpb#branch                     -1.03803e-11
x5:vnb#branch                      1.81003e-12
x5:vgnd#branch                     1.06128e-11
x5:a#branch                                  0
x4:x#branch                                  0
x4:vpwr#branch                     -1.9439e-12
x4:vpb#branch                      -5.1902e-12
x4:vnb#branch                      1.81003e-12
x4:vgnd#branch                     5.32401e-12
x4:a#branch                                  0
x3:x#branch                                  0
x3:vpwr#branch                    -2.01847e-12
x3:vpb#branch                     -1.80997e-12
x3:vnb#branch                      1.81009e-12
x3:vgnd#branch                     2.01837e-12
x3:a#branch                                  0
x2:vss#branch                                0
x2:clk#branch                     -4.84676e-27
x2:vdd#branch                      4.96131e-15
vmeas_current_gnd#branch           4.57125e-05
vmeas_current_vdd#branch           4.57125e-05
v2#branch                         -4.57126e-05
x1:vctrl#branch                              0
x1:out#branch                      4.84676e-27
x1:vss#branch                      4.57125e-05
x1:vdd#branch                     -4.57125e-05


No. of Data Rows : 7020

  Measurements for Transient Analysis

tvco_outside_while  =  4.252541e-10 targ=  2.180345e-08 trig=  2.137819e-08
fvco_outside_while  =  2.35154e+09
supply_current_rms_outside_while=   2.95837e-04 from=  1.00000e-08 to=  4.00000e-08
ground_current_rms_outside_while=   3.02020e-04 from=  1.00000e-08 to=  4.00000e-08
vctrl_avg_outside_while=  7.000000e-01 from=  1.000000e-08 to=  2.000500e-08
vhigh_outside_while =  1.929857e+00 at=  1.144500e-08
vlow_outside_while  =  -7.714702e-02 at=  1.497500e-08
peak_to_peak_outside_while=  2.00700e+00
supply_current_rms  =   2.94130e-04 from=  0.00000e+00 to=  7.00000e-08

binary raw file "3-stage_cs-vco_tb_WITH_APPENDWRITE.raw"
Reset re-loads circuit ** sch_path: /home/darunix/gitsandboxes/vco/vco/xschem/3-stage_cs-vco_tb.sch

Circuit: ** sch_path: /home/darunix/gitsandboxes/vco/vco/xschem/3-stage_cs-vco_tb.sch

option SCALE: Scale is set to 1e-06 for instance and model parameters
Doing analysis at TEMP = 27.000000 and TNOM = 27.000000

Warning: v1: no DC value, transient time 0 value used

Initial Transient Solution
--------------------------

Node                                   Voltage
----                                   -------
int_net1_x1_1                              1.8
int_net2_x1_2                                0
int_out_x1_3                       6.80528e-09
int_vctrl_x1_4                               0
net1                                       1.8
net2                                         0
out                                6.80528e-09
vctrl                                        0
vdd                                        1.8
int_vdd_x2_1                               1.8
int_out_x2_2                       6.80528e-09
int_gnd_x2_3                                 0
int_gnd_x3_2                                 0
int_out_x3_1                       6.80528e-09
int_gnd_x3_3                                 0
int_buf1_out_x3_6                  2.60627e-09
int_vdd_x3_5                               1.8
int_vdd_x3_4                               1.8
buf1_out                           2.60627e-09
int_buf1_out_x4_1                  2.60627e-09
int_vdd_x4_5                               1.8
int_vdd_x4_4                               1.8
int_gnd_x4_2                                 0
int_gnd_x4_3                                 0
int_net4_x4_6                       4.9501e-09
net4                                4.9501e-09
int_vdd_x5_5                               1.8
int_net5_x5_6                       4.9501e-09
int_vdd_x5_4                               1.8
int_net4_x5_1                       4.9501e-09
int_gnd_x5_2                                 0
int_gnd_x5_3                                 0
net5                                4.9501e-09
int_net3_x6_6                       4.9501e-09
int_gnd_x6_2                                 0
int_gnd_x6_3                                 0
int_net5_x6_1                       4.9501e-09
int_vdd_x6_5                               1.8
int_vdd_x6_4                               1.8
net3                                4.9501e-09
int_vdd_x7_5                               1.8
int_buf16_out_x7_6                  4.9501e-09
int_vdd_x7_4                               1.8
int_gnd_x7_2                                 0
int_gnd_x7_3                                 0
int_net3_x7_1                       4.9501e-09
buf16_out                           4.9501e-09
v1#branch                                    0
x7:x#branch                                  0
x7:vpwr#branch                    -8.17036e-12
x7:vpb#branch                      -4.1522e-11
x7:vnb#branch                       7.2401e-12
x7:vgnd#branch                     4.24513e-11
x7:a#branch                                  0
x6:x#branch                                  0
x6:vpwr#branch                    -4.08518e-12
x6:vpb#branch                     -2.07608e-11
x6:vnb#branch                      3.62005e-12
x6:vgnd#branch                     2.12257e-11
x6:a#branch                                  0
x5:x#branch                                  0
x5:vpwr#branch                    -2.04259e-12
x5:vpb#branch                     -1.03803e-11
x5:vnb#branch                      1.81003e-12
x5:vgnd#branch                     1.06128e-11
x5:a#branch                                  0
x4:x#branch                                  0
x4:vpwr#branch                     -1.9439e-12
x4:vpb#branch                      -5.1902e-12
x4:vnb#branch                      1.81003e-12
x4:vgnd#branch                     5.32401e-12
x4:a#branch                                  0
x3:x#branch                                  0
x3:vpwr#branch                    -2.01847e-12
x3:vpb#branch                     -1.80997e-12
x3:vnb#branch                      1.81009e-12
x3:vgnd#branch                     2.01837e-12
x3:a#branch                                  0
x2:vss#branch                                0
x2:clk#branch                     -4.84676e-27
x2:vdd#branch                      4.96131e-15
vmeas_current_gnd#branch           4.57125e-05
vmeas_current_vdd#branch           4.57125e-05
v2#branch                         -4.57126e-05
x1:vctrl#branch                              0
x1:out#branch                      4.84676e-27
x1:vss#branch                      4.57125e-05
x1:vdd#branch                     -4.57125e-05


No. of Data Rows : 7020

  Measurements for Transient Analysis

tvco_outside_while  =  2.796168e-10 targ=  1.552873e-08 trig=  1.524911e-08
fvco_outside_while  =  3.57632e+09
supply_current_rms_outside_while=   5.42020e-04 from=  1.00000e-08 to=  4.00000e-08
ground_current_rms_outside_while=   4.23725e-04 from=  1.00000e-08 to=  4.00000e-08
vctrl_avg_outside_while=  8.000000e-01 from=  1.000000e-08 to=  2.000500e-08
vhigh_outside_while =  1.927602e+00 at=  1.759500e-08
vlow_outside_while  =  -8.337864e-02 at=  1.522500e-08
peak_to_peak_outside_while=  2.01098e+00
supply_current_rms  =   5.24338e-04 from=  0.00000e+00 to=  7.00000e-08

binary raw file "3-stage_cs-vco_tb_WITH_APPENDWRITE.raw"
Reset re-loads circuit ** sch_path: /home/darunix/gitsandboxes/vco/vco/xschem/3-stage_cs-vco_tb.sch

Circuit: ** sch_path: /home/darunix/gitsandboxes/vco/vco/xschem/3-stage_cs-vco_tb.sch

option SCALE: Scale is set to 1e-06 for instance and model parameters
Doing analysis at TEMP = 27.000000 and TNOM = 27.000000

Warning: v1: no DC value, transient time 0 value used

Initial Transient Solution
--------------------------

Node                                   Voltage
----                                   -------
int_net1_x1_1                              1.8
int_net2_x1_2                                0
int_out_x1_3                       6.80528e-09
int_vctrl_x1_4                               0
net1                                       1.8
net2                                         0
out                                6.80528e-09
vctrl                                        0
vdd                                        1.8
int_vdd_x2_1                               1.8
int_out_x2_2                       6.80528e-09
int_gnd_x2_3                                 0
int_gnd_x3_2                                 0
int_out_x3_1                       6.80528e-09
int_gnd_x3_3                                 0
int_buf1_out_x3_6                  2.60627e-09
int_vdd_x3_5                               1.8
int_vdd_x3_4                               1.8
buf1_out                           2.60627e-09
int_buf1_out_x4_1                  2.60627e-09
int_vdd_x4_5                               1.8
int_vdd_x4_4                               1.8
int_gnd_x4_2                                 0
int_gnd_x4_3                                 0
int_net4_x4_6                       4.9501e-09
net4                                4.9501e-09
int_vdd_x5_5                               1.8
int_net5_x5_6                       4.9501e-09
int_vdd_x5_4                               1.8
int_net4_x5_1                       4.9501e-09
int_gnd_x5_2                                 0
int_gnd_x5_3                                 0
net5                                4.9501e-09
int_net3_x6_6                       4.9501e-09
int_gnd_x6_2                                 0
int_gnd_x6_3                                 0
int_net5_x6_1                       4.9501e-09
int_vdd_x6_5                               1.8
int_vdd_x6_4                               1.8
net3                                4.9501e-09
int_vdd_x7_5                               1.8
int_buf16_out_x7_6                  4.9501e-09
int_vdd_x7_4                               1.8
int_gnd_x7_2                                 0
int_gnd_x7_3                                 0
int_net3_x7_1                       4.9501e-09
buf16_out                           4.9501e-09
v1#branch                                    0
x7:x#branch                                  0
x7:vpwr#branch                    -8.17036e-12
x7:vpb#branch                      -4.1522e-11
x7:vnb#branch                       7.2401e-12
x7:vgnd#branch                     4.24513e-11
x7:a#branch                                  0
x6:x#branch                                  0
x6:vpwr#branch                    -4.08518e-12
x6:vpb#branch                     -2.07608e-11
x6:vnb#branch                      3.62005e-12
x6:vgnd#branch                     2.12257e-11
x6:a#branch                                  0
x5:x#branch                                  0
x5:vpwr#branch                    -2.04259e-12
x5:vpb#branch                     -1.03803e-11
x5:vnb#branch                      1.81003e-12
x5:vgnd#branch                     1.06128e-11
x5:a#branch                                  0
x4:x#branch                                  0
x4:vpwr#branch                     -1.9439e-12
x4:vpb#branch                      -5.1902e-12
x4:vnb#branch                      1.81003e-12
x4:vgnd#branch                     5.32401e-12
x4:a#branch                                  0
x3:x#branch                                  0
x3:vpwr#branch                    -2.01847e-12
x3:vpb#branch                     -1.80997e-12
x3:vnb#branch                      1.81009e-12
x3:vgnd#branch                     2.01837e-12
x3:a#branch                                  0
x2:vss#branch                                0
x2:clk#branch                     -4.84676e-27
x2:vdd#branch                      4.96131e-15
vmeas_current_gnd#branch           4.57125e-05
vmeas_current_vdd#branch           4.57125e-05
v2#branch                         -4.57126e-05
x1:vctrl#branch                              0
x1:out#branch                      4.84676e-27
x1:vss#branch                      4.57125e-05
x1:vdd#branch                     -4.57125e-05


No. of Data Rows : 7020

  Measurements for Transient Analysis

tvco_outside_while  =  2.575129e-10 targ=  1.447668e-08 trig=  1.421917e-08
fvco_outside_while  =  3.88330e+09
supply_current_rms_outside_while=   4.59497e-04 from=  1.00000e-08 to=  4.00000e-08
ground_current_rms_outside_while=   4.57237e-04 from=  1.00000e-08 to=  4.00000e-08
vctrl_avg_outside_while=  9.000000e-01 from=  1.000000e-08 to=  2.000500e-08
vhigh_outside_while =  1.922230e+00 at=  1.173500e-08
vlow_outside_while  =  -8.340872e-02 at=  1.419500e-08
peak_to_peak_outside_while=  2.00564e+00
supply_current_rms  =   4.54144e-04 from=  0.00000e+00 to=  7.00000e-08

binary raw file "3-stage_cs-vco_tb_WITH_APPENDWRITE.raw"
Reset re-loads circuit ** sch_path: /home/darunix/gitsandboxes/vco/vco/xschem/3-stage_cs-vco_tb.sch

Circuit: ** sch_path: /home/darunix/gitsandboxes/vco/vco/xschem/3-stage_cs-vco_tb.sch

option SCALE: Scale is set to 1e-06 for instance and model parameters
Doing analysis at TEMP = 27.000000 and TNOM = 27.000000

Warning: v1: no DC value, transient time 0 value used

Initial Transient Solution
--------------------------

Node                                   Voltage
----                                   -------
int_net1_x1_1                              1.8
int_net2_x1_2                                0
int_out_x1_3                       6.80528e-09
int_vctrl_x1_4                               0
net1                                       1.8
net2                                         0
out                                6.80528e-09
vctrl                                        0
vdd                                        1.8
int_vdd_x2_1                               1.8
int_out_x2_2                       6.80528e-09
int_gnd_x2_3                                 0
int_gnd_x3_2                                 0
int_out_x3_1                       6.80528e-09
int_gnd_x3_3                                 0
int_buf1_out_x3_6                  2.60627e-09
int_vdd_x3_5                               1.8
int_vdd_x3_4                               1.8
buf1_out                           2.60627e-09
int_buf1_out_x4_1                  2.60627e-09
int_vdd_x4_5                               1.8
int_vdd_x4_4                               1.8
int_gnd_x4_2                                 0
int_gnd_x4_3                                 0
int_net4_x4_6                       4.9501e-09
net4                                4.9501e-09
int_vdd_x5_5                               1.8
int_net5_x5_6                       4.9501e-09
int_vdd_x5_4                               1.8
int_net4_x5_1                       4.9501e-09
int_gnd_x5_2                                 0
int_gnd_x5_3                                 0
net5                                4.9501e-09
int_net3_x6_6                       4.9501e-09
int_gnd_x6_2                                 0
int_gnd_x6_3                                 0
int_net5_x6_1                       4.9501e-09
int_vdd_x6_5                               1.8
int_vdd_x6_4                               1.8
net3                                4.9501e-09
int_vdd_x7_5                               1.8
int_buf16_out_x7_6                  4.9501e-09
int_vdd_x7_4                               1.8
int_gnd_x7_2                                 0
int_gnd_x7_3                                 0
int_net3_x7_1                       4.9501e-09
buf16_out                           4.9501e-09
v1#branch                                    0
x7:x#branch                                  0
x7:vpwr#branch                    -8.17036e-12
x7:vpb#branch                      -4.1522e-11
x7:vnb#branch                       7.2401e-12
x7:vgnd#branch                     4.24513e-11
x7:a#branch                                  0
x6:x#branch                                  0
x6:vpwr#branch                    -4.08518e-12
x6:vpb#branch                     -2.07608e-11
x6:vnb#branch                      3.62005e-12
x6:vgnd#branch                     2.12257e-11
x6:a#branch                                  0
x5:x#branch                                  0
x5:vpwr#branch                    -2.04259e-12
x5:vpb#branch                     -1.03803e-11
x5:vnb#branch                      1.81003e-12
x5:vgnd#branch                     1.06128e-11
x5:a#branch                                  0
x4:x#branch                                  0
x4:vpwr#branch                     -1.9439e-12
x4:vpb#branch                      -5.1902e-12
x4:vnb#branch                      1.81003e-12
x4:vgnd#branch                     5.32401e-12
x4:a#branch                                  0
x3:x#branch                                  0
x3:vpwr#branch                    -2.01847e-12
x3:vpb#branch                     -1.80997e-12
x3:vnb#branch                      1.81009e-12
x3:vgnd#branch                     2.01837e-12
x3:a#branch                                  0
x2:vss#branch                                0
x2:clk#branch                     -4.84676e-27
x2:vdd#branch                      4.96131e-15
vmeas_current_gnd#branch           4.57125e-05
vmeas_current_vdd#branch           4.57125e-05
v2#branch                         -4.57126e-05
x1:vctrl#branch                              0
x1:out#branch                      4.84676e-27
x1:vss#branch                      4.57125e-05
x1:vdd#branch                     -4.57125e-05


No. of Data Rows : 7020

  Measurements for Transient Analysis

tvco_outside_while  =  2.511065e-10 targ=  1.419816e-08 trig=  1.394705e-08
fvco_outside_while  =  3.98237e+09
supply_current_rms_outside_while=   4.83419e-04 from=  1.00000e-08 to=  4.00000e-08
ground_current_rms_outside_while=   4.84369e-04 from=  1.00000e-08 to=  4.00000e-08
vctrl_avg_outside_while=  1.000000e+00 from=  1.000000e-08 to=  2.000500e-08
vhigh_outside_while =  1.917886e+00 at=  1.930500e-08
vlow_outside_while  =  -8.361652e-02 at=  1.065500e-08
peak_to_peak_outside_while=  2.00150e+00
supply_current_rms  =   4.78015e-04 from=  0.00000e+00 to=  7.00000e-08

binary raw file "3-stage_cs-vco_tb_WITH_APPENDWRITE.raw"
Reset re-loads circuit ** sch_path: /home/darunix/gitsandboxes/vco/vco/xschem/3-stage_cs-vco_tb.sch

Circuit: ** sch_path: /home/darunix/gitsandboxes/vco/vco/xschem/3-stage_cs-vco_tb.sch

option SCALE: Scale is set to 1e-06 for instance and model parameters
Doing analysis at TEMP = 27.000000 and TNOM = 27.000000

Warning: v1: no DC value, transient time 0 value used

Initial Transient Solution
--------------------------

Node                                   Voltage
----                                   -------
int_net1_x1_1                              1.8
int_net2_x1_2                                0
int_out_x1_3                       6.80528e-09
int_vctrl_x1_4                               0
net1                                       1.8
net2                                         0
out                                6.80528e-09
vctrl                                        0
vdd                                        1.8
int_vdd_x2_1                               1.8
int_out_x2_2                       6.80528e-09
int_gnd_x2_3                                 0
int_gnd_x3_2                                 0
int_out_x3_1                       6.80528e-09
int_gnd_x3_3                                 0
int_buf1_out_x3_6                  2.60627e-09
int_vdd_x3_5                               1.8
int_vdd_x3_4                               1.8
buf1_out                           2.60627e-09
int_buf1_out_x4_1                  2.60627e-09
int_vdd_x4_5                               1.8
int_vdd_x4_4                               1.8
int_gnd_x4_2                                 0
int_gnd_x4_3                                 0
int_net4_x4_6                       4.9501e-09
net4                                4.9501e-09
int_vdd_x5_5                               1.8
int_net5_x5_6                       4.9501e-09
int_vdd_x5_4                               1.8
int_net4_x5_1                       4.9501e-09
int_gnd_x5_2                                 0
int_gnd_x5_3                                 0
net5                                4.9501e-09
int_net3_x6_6                       4.9501e-09
int_gnd_x6_2                                 0
int_gnd_x6_3                                 0
int_net5_x6_1                       4.9501e-09
int_vdd_x6_5                               1.8
int_vdd_x6_4                               1.8
net3                                4.9501e-09
int_vdd_x7_5                               1.8
int_buf16_out_x7_6                  4.9501e-09
int_vdd_x7_4                               1.8
int_gnd_x7_2                                 0
int_gnd_x7_3                                 0
int_net3_x7_1                       4.9501e-09
buf16_out                           4.9501e-09
v1#branch                                    0
x7:x#branch                                  0
x7:vpwr#branch                    -8.17036e-12
x7:vpb#branch                      -4.1522e-11
x7:vnb#branch                       7.2401e-12
x7:vgnd#branch                     4.24513e-11
x7:a#branch                                  0
x6:x#branch                                  0
x6:vpwr#branch                    -4.08518e-12
x6:vpb#branch                     -2.07608e-11
x6:vnb#branch                      3.62005e-12
x6:vgnd#branch                     2.12257e-11
x6:a#branch                                  0
x5:x#branch                                  0
x5:vpwr#branch                    -2.04259e-12
x5:vpb#branch                     -1.03803e-11
x5:vnb#branch                      1.81003e-12
x5:vgnd#branch                     1.06128e-11
x5:a#branch                                  0
x4:x#branch                                  0
x4:vpwr#branch                     -1.9439e-12
x4:vpb#branch                      -5.1902e-12
x4:vnb#branch                      1.81003e-12
x4:vgnd#branch                     5.32401e-12
x4:a#branch                                  0
x3:x#branch                                  0
x3:vpwr#branch                    -2.01847e-12
x3:vpb#branch                     -1.80997e-12
x3:vnb#branch                      1.81009e-12
x3:vgnd#branch                     2.01837e-12
x3:a#branch                                  0
x2:vss#branch                                0
x2:clk#branch                     -4.84676e-27
x2:vdd#branch                      4.96131e-15
vmeas_current_gnd#branch           4.57125e-05
vmeas_current_vdd#branch           4.57125e-05
v2#branch                         -4.57126e-05
x1:vctrl#branch                              0
x1:out#branch                      4.84676e-27
x1:vss#branch                      4.57125e-05
x1:vdd#branch                     -4.57125e-05


No. of Data Rows : 7020

  Measurements for Transient Analysis

tvco_outside_while  =  2.487839e-10 targ=  1.407491e-08 trig=  1.382613e-08
fvco_outside_while  =  4.01955e+09
supply_current_rms_outside_while=   5.09968e-04 from=  1.00000e-08 to=  4.00000e-08
ground_current_rms_outside_while=   5.10737e-04 from=  1.00000e-08 to=  4.00000e-08
vctrl_avg_outside_while=  1.100000e+00 from=  1.000000e-08 to=  2.000500e-08
vhigh_outside_while =  1.914849e+00 at=  1.340500e-08
vlow_outside_while  =  -8.372164e-02 at=  1.504500e-08
peak_to_peak_outside_while=  1.99857e+00
supply_current_rms  =   5.03768e-04 from=  0.00000e+00 to=  7.00000e-08

binary raw file "3-stage_cs-vco_tb_WITH_APPENDWRITE.raw"
Reset re-loads circuit ** sch_path: /home/darunix/gitsandboxes/vco/vco/xschem/3-stage_cs-vco_tb.sch

Circuit: ** sch_path: /home/darunix/gitsandboxes/vco/vco/xschem/3-stage_cs-vco_tb.sch

option SCALE: Scale is set to 1e-06 for instance and model parameters
Doing analysis at TEMP = 27.000000 and TNOM = 27.000000

Warning: v1: no DC value, transient time 0 value used

Initial Transient Solution
--------------------------

Node                                   Voltage
----                                   -------
int_net1_x1_1                              1.8
int_net2_x1_2                                0
int_out_x1_3                       6.80528e-09
int_vctrl_x1_4                               0
net1                                       1.8
net2                                         0
out                                6.80528e-09
vctrl                                        0
vdd                                        1.8
int_vdd_x2_1                               1.8
int_out_x2_2                       6.80528e-09
int_gnd_x2_3                                 0
int_gnd_x3_2                                 0
int_out_x3_1                       6.80528e-09
int_gnd_x3_3                                 0
int_buf1_out_x3_6                  2.60627e-09
int_vdd_x3_5                               1.8
int_vdd_x3_4                               1.8
buf1_out                           2.60627e-09
int_buf1_out_x4_1                  2.60627e-09
int_vdd_x4_5                               1.8
int_vdd_x4_4                               1.8
int_gnd_x4_2                                 0
int_gnd_x4_3                                 0
int_net4_x4_6                       4.9501e-09
net4                                4.9501e-09
int_vdd_x5_5                               1.8
int_net5_x5_6                       4.9501e-09
int_vdd_x5_4                               1.8
int_net4_x5_1                       4.9501e-09
int_gnd_x5_2                                 0
int_gnd_x5_3                                 0
net5                                4.9501e-09
int_net3_x6_6                       4.9501e-09
int_gnd_x6_2                                 0
int_gnd_x6_3                                 0
int_net5_x6_1                       4.9501e-09
int_vdd_x6_5                               1.8
int_vdd_x6_4                               1.8
net3                                4.9501e-09
int_vdd_x7_5                               1.8
int_buf16_out_x7_6                  4.9501e-09
int_vdd_x7_4                               1.8
int_gnd_x7_2                                 0
int_gnd_x7_3                                 0
int_net3_x7_1                       4.9501e-09
buf16_out                           4.9501e-09
v1#branch                                    0
x7:x#branch                                  0
x7:vpwr#branch                    -8.17036e-12
x7:vpb#branch                      -4.1522e-11
x7:vnb#branch                       7.2401e-12
x7:vgnd#branch                     4.24513e-11
x7:a#branch                                  0
x6:x#branch                                  0
x6:vpwr#branch                    -4.08518e-12
x6:vpb#branch                     -2.07608e-11
x6:vnb#branch                      3.62005e-12
x6:vgnd#branch                     2.12257e-11
x6:a#branch                                  0
x5:x#branch                                  0
x5:vpwr#branch                    -2.04259e-12
x5:vpb#branch                     -1.03803e-11
x5:vnb#branch                      1.81003e-12
x5:vgnd#branch                     1.06128e-11
x5:a#branch                                  0
x4:x#branch                                  0
x4:vpwr#branch                     -1.9439e-12
x4:vpb#branch                      -5.1902e-12
x4:vnb#branch                      1.81003e-12
x4:vgnd#branch                     5.32401e-12
x4:a#branch                                  0
x3:x#branch                                  0
x3:vpwr#branch                    -2.01847e-12
x3:vpb#branch                     -1.80997e-12
x3:vnb#branch                      1.81009e-12
x3:vgnd#branch                     2.01837e-12
x3:a#branch                                  0
x2:vss#branch                                0
x2:clk#branch                     -4.84676e-27
x2:vdd#branch                      4.96131e-15
vmeas_current_gnd#branch           4.57125e-05
vmeas_current_vdd#branch           4.57125e-05
v2#branch                         -4.57126e-05
x1:vctrl#branch                              0
x1:out#branch                      4.84676e-27
x1:vss#branch                      4.57125e-05
x1:vdd#branch                     -4.57125e-05


No. of Data Rows : 7020

  Measurements for Transient Analysis

tvco_outside_while  =  2.472385e-10 targ=  1.401300e-08 trig=  1.376576e-08
fvco_outside_while  =  4.04468e+09
supply_current_rms_outside_while=   5.30730e-04 from=  1.00000e-08 to=  4.00000e-08
ground_current_rms_outside_while=   5.31701e-04 from=  1.00000e-08 to=  4.00000e-08
vctrl_avg_outside_while=  1.200000e+00 from=  1.000000e-08 to=  2.000500e-08
vhigh_outside_while =  1.912884e+00 at=  1.532500e-08
vlow_outside_while  =  -8.375353e-02 at=  1.522500e-08
peak_to_peak_outside_while=  1.99664e+00
supply_current_rms  =   5.24026e-04 from=  0.00000e+00 to=  7.00000e-08

binary raw file "3-stage_cs-vco_tb_WITH_APPENDWRITE.raw"
Reset re-loads circuit ** sch_path: /home/darunix/gitsandboxes/vco/vco/xschem/3-stage_cs-vco_tb.sch

Circuit: ** sch_path: /home/darunix/gitsandboxes/vco/vco/xschem/3-stage_cs-vco_tb.sch

option SCALE: Scale is set to 1e-06 for instance and model parameters
Doing analysis at TEMP = 27.000000 and TNOM = 27.000000

Warning: v1: no DC value, transient time 0 value used

Initial Transient Solution
--------------------------

Node                                   Voltage
----                                   -------
int_net1_x1_1                              1.8
int_net2_x1_2                                0
int_out_x1_3                       6.80528e-09
int_vctrl_x1_4                               0
net1                                       1.8
net2                                         0
out                                6.80528e-09
vctrl                                        0
vdd                                        1.8
int_vdd_x2_1                               1.8
int_out_x2_2                       6.80528e-09
int_gnd_x2_3                                 0
int_gnd_x3_2                                 0
int_out_x3_1                       6.80528e-09
int_gnd_x3_3                                 0
int_buf1_out_x3_6                  2.60627e-09
int_vdd_x3_5                               1.8
int_vdd_x3_4                               1.8
buf1_out                           2.60627e-09
int_buf1_out_x4_1                  2.60627e-09
int_vdd_x4_5                               1.8
int_vdd_x4_4                               1.8
int_gnd_x4_2                                 0
int_gnd_x4_3                                 0
int_net4_x4_6                       4.9501e-09
net4                                4.9501e-09
int_vdd_x5_5                               1.8
int_net5_x5_6                       4.9501e-09
int_vdd_x5_4                               1.8
int_net4_x5_1                       4.9501e-09
int_gnd_x5_2                                 0
int_gnd_x5_3                                 0
net5                                4.9501e-09
int_net3_x6_6                       4.9501e-09
int_gnd_x6_2                                 0
int_gnd_x6_3                                 0
int_net5_x6_1                       4.9501e-09
int_vdd_x6_5                               1.8
int_vdd_x6_4                               1.8
net3                                4.9501e-09
int_vdd_x7_5                               1.8
int_buf16_out_x7_6                  4.9501e-09
int_vdd_x7_4                               1.8
int_gnd_x7_2                                 0
int_gnd_x7_3                                 0
int_net3_x7_1                       4.9501e-09
buf16_out                           4.9501e-09
v1#branch                                    0
x7:x#branch                                  0
x7:vpwr#branch                    -8.17036e-12
x7:vpb#branch                      -4.1522e-11
x7:vnb#branch                       7.2401e-12
x7:vgnd#branch                     4.24513e-11
x7:a#branch                                  0
x6:x#branch                                  0
x6:vpwr#branch                    -4.08518e-12
x6:vpb#branch                     -2.07608e-11
x6:vnb#branch                      3.62005e-12
x6:vgnd#branch                     2.12257e-11
x6:a#branch                                  0
x5:x#branch                                  0
x5:vpwr#branch                    -2.04259e-12
x5:vpb#branch                     -1.03803e-11
x5:vnb#branch                      1.81003e-12
x5:vgnd#branch                     1.06128e-11
x5:a#branch                                  0
x4:x#branch                                  0
x4:vpwr#branch                     -1.9439e-12
x4:vpb#branch                      -5.1902e-12
x4:vnb#branch                      1.81003e-12
x4:vgnd#branch                     5.32401e-12
x4:a#branch                                  0
x3:x#branch                                  0
x3:vpwr#branch                    -2.01847e-12
x3:vpb#branch                     -1.80997e-12
x3:vnb#branch                      1.81009e-12
x3:vgnd#branch                     2.01837e-12
x3:a#branch                                  0
x2:vss#branch                                0
x2:clk#branch                     -4.84676e-27
x2:vdd#branch                      4.96131e-15
vmeas_current_gnd#branch           4.57125e-05
vmeas_current_vdd#branch           4.57125e-05
v2#branch                         -4.57126e-05
x1:vctrl#branch                              0
x1:out#branch                      4.84676e-27
x1:vss#branch                      4.57125e-05
x1:vdd#branch                     -4.57125e-05


No. of Data Rows : 7020

  Measurements for Transient Analysis

tvco_outside_while  =  2.465702e-10 targ=  1.398249e-08 trig=  1.373592e-08
fvco_outside_while  =  4.05564e+09
supply_current_rms_outside_while=   5.41381e-04 from=  1.00000e-08 to=  4.00000e-08
ground_current_rms_outside_while=   5.42430e-04 from=  1.00000e-08 to=  4.00000e-08
vctrl_avg_outside_while=  1.300000e+00 from=  1.000000e-08 to=  2.000500e-08
vhigh_outside_while =  1.911980e+00 at=  1.726500e-08
vlow_outside_while  =  -8.375336e-02 at=  1.568500e-08
peak_to_peak_outside_while=  1.99573e+00
supply_current_rms  =   5.34732e-04 from=  0.00000e+00 to=  7.00000e-08

binary raw file "3-stage_cs-vco_tb_WITH_APPENDWRITE.raw"
Reset re-loads circuit ** sch_path: /home/darunix/gitsandboxes/vco/vco/xschem/3-stage_cs-vco_tb.sch

Circuit: ** sch_path: /home/darunix/gitsandboxes/vco/vco/xschem/3-stage_cs-vco_tb.sch

option SCALE: Scale is set to 1e-06 for instance and model parameters
Doing analysis at TEMP = 27.000000 and TNOM = 27.000000

Warning: v1: no DC value, transient time 0 value used

Initial Transient Solution
--------------------------

Node                                   Voltage
----                                   -------
int_net1_x1_1                              1.8
int_net2_x1_2                                0
int_out_x1_3                       6.80528e-09
int_vctrl_x1_4                               0
net1                                       1.8
net2                                         0
out                                6.80528e-09
vctrl                                        0
vdd                                        1.8
int_vdd_x2_1                               1.8
int_out_x2_2                       6.80528e-09
int_gnd_x2_3                                 0
int_gnd_x3_2                                 0
int_out_x3_1                       6.80528e-09
int_gnd_x3_3                                 0
int_buf1_out_x3_6                  2.60627e-09
int_vdd_x3_5                               1.8
int_vdd_x3_4                               1.8
buf1_out                           2.60627e-09
int_buf1_out_x4_1                  2.60627e-09
int_vdd_x4_5                               1.8
int_vdd_x4_4                               1.8
int_gnd_x4_2                                 0
int_gnd_x4_3                                 0
int_net4_x4_6                       4.9501e-09
net4                                4.9501e-09
int_vdd_x5_5                               1.8
int_net5_x5_6                       4.9501e-09
int_vdd_x5_4                               1.8
int_net4_x5_1                       4.9501e-09
int_gnd_x5_2                                 0
int_gnd_x5_3                                 0
net5                                4.9501e-09
int_net3_x6_6                       4.9501e-09
int_gnd_x6_2                                 0
int_gnd_x6_3                                 0
int_net5_x6_1                       4.9501e-09
int_vdd_x6_5                               1.8
int_vdd_x6_4                               1.8
net3                                4.9501e-09
int_vdd_x7_5                               1.8
int_buf16_out_x7_6                  4.9501e-09
int_vdd_x7_4                               1.8
int_gnd_x7_2                                 0
int_gnd_x7_3                                 0
int_net3_x7_1                       4.9501e-09
[...]
x7:vnb#branch                       7.2401e-12
x7:vgnd#branch                     4.24513e-11
x7:a#branch                                  0
x6:x#branch                                  0
x6:vpwr#branch                    -4.08518e-12
x6:vpb#branch                     -2.07608e-11
x6:vnb#branch                      3.62005e-12
x6:vgnd#branch                     2.12257e-11
x6:a#branch                                  0
x5:x#branch                                  0
x5:vpwr#branch                    -2.04259e-12
x5:vpb#branch                     -1.03803e-11
x5:vnb#branch                      1.81003e-12
x5:vgnd#branch                     1.06128e-11
x5:a#branch                                  0
x4:x#branch                                  0
x4:vpwr#branch                     -1.9439e-12
x4:vpb#branch                      -5.1902e-12
x4:vnb#branch                      1.81003e-12
x4:vgnd#branch                     5.32401e-12
x4:a#branch                                  0
x3:x#branch                                  0
x3:vpwr#branch                    -2.01847e-12
x3:vpb#branch                     -1.80997e-12
x3:vnb#branch                      1.81009e-12
x3:vgnd#branch                     2.01837e-12
x3:a#branch                                  0
x2:vss#branch                                0
x2:clk#branch                     -4.84676e-27
x2:vdd#branch                      4.96131e-15
vmeas_current_gnd#branch           4.57125e-05
vmeas_current_vdd#branch           4.57125e-05
v2#branch                         -4.57126e-05
x1:vctrl#branch                              0
x1:out#branch                      4.84676e-27
x1:vss#branch                      4.57125e-05
x1:vdd#branch                     -4.57125e-05


No. of Data Rows : 7020

  Measurements for Transient Analysis

tvco_outside_while  =  2.458357e-10 targ=  1.395152e-08 trig=  1.370569e-08
fvco_outside_while  =  4.06776e+09
supply_current_rms_outside_while=   5.52205e-04 from=  1.00000e-08 to=  4.00000e-08
ground_current_rms_outside_while=   5.53673e-04 from=  1.00000e-08 to=  4.00000e-08
vctrl_avg_outside_while=  1.500000e+00 from=  1.000000e-08 to=  2.000500e-08
vhigh_outside_while =  1.911202e+00 at=  1.279500e-08
vlow_outside_while  =  -8.371560e-02 at=  1.466500e-08
peak_to_peak_outside_while=  1.99492e+00
supply_current_rms  =   5.45623e-04 from=  0.00000e+00 to=  7.00000e-08

binary raw file "3-stage_cs-vco_tb_WITH_APPENDWRITE.raw"
Reset re-loads circuit ** sch_path: /home/darunix/gitsandboxes/vco/vco/xschem/3-stage_cs-vco_tb.sch

Circuit: ** sch_path: /home/darunix/gitsandboxes/vco/vco/xschem/3-stage_cs-vco_tb.sch

option SCALE: Scale is set to 1e-06 for instance and model parameters
Doing analysis at TEMP = 27.000000 and TNOM = 27.000000

Warning: v1: no DC value, transient time 0 value used

Initial Transient Solution
--------------------------

Node                                   Voltage
----                                   -------
int_net1_x1_1                              1.8
int_net2_x1_2                                0
int_out_x1_3                       6.80528e-09
int_vctrl_x1_4                               0
net1                                       1.8
net2                                         0
out                                6.80528e-09
vctrl                                        0
vdd                                        1.8
int_vdd_x2_1                               1.8
int_out_x2_2                       6.80528e-09
int_gnd_x2_3                                 0
int_gnd_x3_2                                 0
int_out_x3_1                       6.80528e-09
int_gnd_x3_3                                 0
int_buf1_out_x3_6                  2.60627e-09
int_vdd_x3_5                               1.8
int_vdd_x3_4                               1.8
buf1_out                           2.60627e-09
int_buf1_out_x4_1                  2.60627e-09
int_vdd_x4_5                               1.8
int_vdd_x4_4                               1.8
int_gnd_x4_2                                 0
int_gnd_x4_3                                 0
int_net4_x4_6                       4.9501e-09
net4                                4.9501e-09
int_vdd_x5_5                               1.8
int_net5_x5_6                       4.9501e-09
int_vdd_x5_4                               1.8
int_net4_x5_1                       4.9501e-09
int_gnd_x5_2                                 0
int_gnd_x5_3                                 0
net5                                4.9501e-09
int_net3_x6_6                       4.9501e-09
int_gnd_x6_2                                 0
int_gnd_x6_3                                 0
int_net5_x6_1                       4.9501e-09
int_vdd_x6_5                               1.8
int_vdd_x6_4                               1.8
net3                                4.9501e-09
int_vdd_x7_5                               1.8
int_buf16_out_x7_6                  4.9501e-09
int_vdd_x7_4                               1.8
int_gnd_x7_2                                 0
int_gnd_x7_3                                 0
int_net3_x7_1                       4.9501e-09
buf16_out                           4.9501e-09
v1#branch                                    0
x7:x#branch                                  0
x7:vpwr#branch                    -8.17036e-12
x7:vpb#branch                      -4.1522e-11
x7:vnb#branch                       7.2401e-12
x7:vgnd#branch                     4.24513e-11
x7:a#branch                                  0
x6:x#branch                                  0
x6:vpwr#branch                    -4.08518e-12
x6:vpb#branch                     -2.07608e-11
x6:vnb#branch                      3.62005e-12
x6:vgnd#branch                     2.12257e-11
x6:a#branch                                  0
x5:x#branch                                  0
x5:vpwr#branch                    -2.04259e-12
x5:vpb#branch                     -1.03803e-11
x5:vnb#branch                      1.81003e-12
x5:vgnd#branch                     1.06128e-11
x5:a#branch                                  0
x4:x#branch                                  0
x4:vpwr#branch                     -1.9439e-12
x4:vpb#branch                      -5.1902e-12
x4:vnb#branch                      1.81003e-12
x4:vgnd#branch                     5.32401e-12
x4:a#branch                                  0
x3:x#branch                                  0
x3:vpwr#branch                    -2.01847e-12
x3:vpb#branch                     -1.80997e-12
x3:vnb#branch                      1.81009e-12
x3:vgnd#branch                     2.01837e-12
x3:a#branch                                  0
x2:vss#branch                                0
x2:clk#branch                     -4.84676e-27
x2:vdd#branch                      4.96131e-15
vmeas_current_gnd#branch           4.57125e-05
vmeas_current_vdd#branch           4.57125e-05
v2#branch                         -4.57126e-05
x1:vctrl#branch                              0
x1:out#branch                      4.84676e-27
x1:vss#branch                      4.57125e-05
x1:vdd#branch                     -4.57125e-05


No. of Data Rows : 7020

  Measurements for Transient Analysis

tvco_outside_while  =  2.458044e-10 targ=  1.394250e-08 trig=  1.369670e-08
fvco_outside_while  =  4.06828e+09
supply_current_rms_outside_while=   5.55577e-04 from=  1.00000e-08 to=  4.00000e-08
ground_current_rms_outside_while=   5.57042e-04 from=  1.00000e-08 to=  4.00000e-08
vctrl_avg_outside_while=  1.600000e+00 from=  1.000000e-08 to=  2.000500e-08
vhigh_outside_while =  1.910996e+00 at=  1.106500e-08
vlow_outside_while  =  -8.370287e-02 at=  1.588500e-08
peak_to_peak_outside_while=  1.99470e+00
supply_current_rms  =   5.48888e-04 from=  0.00000e+00 to=  7.00000e-08

binary raw file "3-stage_cs-vco_tb_WITH_APPENDWRITE.raw"
Reset re-loads circuit ** sch_path: /home/darunix/gitsandboxes/vco/vco/xschem/3-stage_cs-vco_tb.sch

Circuit: ** sch_path: /home/darunix/gitsandboxes/vco/vco/xschem/3-stage_cs-vco_tb.sch

option SCALE: Scale is set to 1e-06 for instance and model parameters
Doing analysis at TEMP = 27.000000 and TNOM = 27.000000

Warning: v1: no DC value, transient time 0 value used

Initial Transient Solution
--------------------------

Node                                   Voltage
----                                   -------
int_net1_x1_1                              1.8
int_net2_x1_2                                0
int_out_x1_3                       6.80528e-09
int_vctrl_x1_4                               0
net1                                       1.8
net2                                         0
out                                6.80528e-09
vctrl                                        0
vdd                                        1.8
int_vdd_x2_1                               1.8
int_out_x2_2                       6.80528e-09
int_gnd_x2_3                                 0
int_gnd_x3_2                                 0
int_out_x3_1                       6.80528e-09
int_gnd_x3_3                                 0
int_buf1_out_x3_6                  2.60627e-09
int_vdd_x3_5                               1.8
int_vdd_x3_4                               1.8
buf1_out                           2.60627e-09
int_buf1_out_x4_1                  2.60627e-09
int_vdd_x4_5                               1.8
int_vdd_x4_4                               1.8
int_gnd_x4_2                                 0
int_gnd_x4_3                                 0
int_net4_x4_6                       4.9501e-09
net4                                4.9501e-09
int_vdd_x5_5                               1.8
int_net5_x5_6                       4.9501e-09
int_vdd_x5_4                               1.8
int_net4_x5_1                       4.9501e-09
int_gnd_x5_2                                 0
int_gnd_x5_3                                 0
net5                                4.9501e-09
int_net3_x6_6                       4.9501e-09
int_gnd_x6_2                                 0
int_gnd_x6_3                                 0
int_net5_x6_1                       4.9501e-09
int_vdd_x6_5                               1.8
int_vdd_x6_4                               1.8
net3                                4.9501e-09
int_vdd_x7_5                               1.8
int_buf16_out_x7_6                  4.9501e-09
int_vdd_x7_4                               1.8
int_gnd_x7_2                                 0
int_gnd_x7_3                                 0
int_net3_x7_1                       4.9501e-09
buf16_out                           4.9501e-09
v1#branch                                    0
x7:x#branch                                  0
x7:vpwr#branch                    -8.17036e-12
x7:vpb#branch                      -4.1522e-11
x7:vnb#branch                       7.2401e-12
x7:vgnd#branch                     4.24513e-11
x7:a#branch                                  0
x6:x#branch                                  0
x6:vpwr#branch                    -4.08518e-12
x6:vpb#branch                     -2.07608e-11
x6:vnb#branch                      3.62005e-12
x6:vgnd#branch                     2.12257e-11
x6:a#branch                                  0
x5:x#branch                                  0
x5:vpwr#branch                    -2.04259e-12
x5:vpb#branch                     -1.03803e-11
x5:vnb#branch                      1.81003e-12
x5:vgnd#branch                     1.06128e-11
x5:a#branch                                  0
x4:x#branch                                  0
x4:vpwr#branch                     -1.9439e-12
x4:vpb#branch                      -5.1902e-12
x4:vnb#branch                      1.81003e-12
x4:vgnd#branch                     5.32401e-12
x4:a#branch                                  0
x3:x#branch                                  0
x3:vpwr#branch                    -2.01847e-12
x3:vpb#branch                     -1.80997e-12
x3:vnb#branch                      1.81009e-12
x3:vgnd#branch                     2.01837e-12
x3:a#branch                                  0
x2:vss#branch                                0
x2:clk#branch                     -4.84676e-27
x2:vdd#branch                      4.96131e-15
vmeas_current_gnd#branch           4.57125e-05
vmeas_current_vdd#branch           4.57125e-05
v2#branch                         -4.57126e-05
x1:vctrl#branch                              0
x1:out#branch                      4.84676e-27
x1:vss#branch                      4.57125e-05
x1:vdd#branch                     -4.57125e-05


No. of Data Rows : 7020

  Measurements for Transient Analysis

tvco_outside_while  =  2.461096e-10 targ=  1.393586e-08 trig=  1.368975e-08
fvco_outside_while  =  4.06323e+09
supply_current_rms_outside_while=   5.58282e-04 from=  1.00000e-08 to=  4.00000e-08
ground_current_rms_outside_while=   5.59597e-04 from=  1.00000e-08 to=  4.00000e-08
vctrl_avg_outside_while=  1.700000e+00 from=  1.000000e-08 to=  2.000500e-08
vhigh_outside_while =  1.910831e+00 at=  1.425500e-08
vlow_outside_while  =  -8.368798e-02 at=  1.833500e-08
peak_to_peak_outside_while=  1.99452e+00
supply_current_rms  =   5.51521e-04 from=  0.00000e+00 to=  7.00000e-08

binary raw file "3-stage_cs-vco_tb_WITH_APPENDWRITE.raw"
Reset re-loads circuit ** sch_path: /home/darunix/gitsandboxes/vco/vco/xschem/3-stage_cs-vco_tb.sch

Circuit: ** sch_path: /home/darunix/gitsandboxes/vco/vco/xschem/3-stage_cs-vco_tb.sch

option SCALE: Scale is set to 1e-06 for instance and model parameters
Doing analysis at TEMP = 27.000000 and TNOM = 27.000000

Warning: v1: no DC value, transient time 0 value used

Initial Transient Solution
--------------------------

Node                                   Voltage
----                                   -------
int_net1_x1_1                              1.8
int_net2_x1_2                                0
int_out_x1_3                       6.80528e-09
int_vctrl_x1_4                               0
net1                                       1.8
net2                                         0
out                                6.80528e-09
vctrl                                        0
vdd                                        1.8
int_vdd_x2_1                               1.8
int_out_x2_2                       6.80528e-09
int_gnd_x2_3                                 0
int_gnd_x3_2                                 0
int_out_x3_1                       6.80528e-09
int_gnd_x3_3                                 0
int_buf1_out_x3_6                  2.60627e-09
int_vdd_x3_5                               1.8
int_vdd_x3_4                               1.8
buf1_out                           2.60627e-09
int_buf1_out_x4_1                  2.60627e-09
int_vdd_x4_5                               1.8
int_vdd_x4_4                               1.8
int_gnd_x4_2                                 0
int_gnd_x4_3                                 0
int_net4_x4_6                       4.9501e-09
net4                                4.9501e-09
int_vdd_x5_5                               1.8
int_net5_x5_6                       4.9501e-09
int_vdd_x5_4                               1.8
int_net4_x5_1                       4.9501e-09
int_gnd_x5_2                                 0
int_gnd_x5_3                                 0
net5                                4.9501e-09
int_net3_x6_6                       4.9501e-09
int_gnd_x6_2                                 0
int_gnd_x6_3                                 0
int_net5_x6_1                       4.9501e-09
int_vdd_x6_5                               1.8
int_vdd_x6_4                               1.8
net3                                4.9501e-09
int_vdd_x7_5                               1.8
int_buf16_out_x7_6                  4.9501e-09
int_vdd_x7_4                               1.8
int_gnd_x7_2                                 0
int_gnd_x7_3                                 0
int_net3_x7_1                       4.9501e-09
buf16_out                           4.9501e-09
v1#branch                                    0
x7:x#branch                                  0
x7:vpwr#branch                    -8.17036e-12
x7:vpb#branch                      -4.1522e-11
x7:vnb#branch                       7.2401e-12
x7:vgnd#branch                     4.24513e-11
x7:a#branch                                  0
x6:x#branch                                  0
x6:vpwr#branch                    -4.08518e-12
x6:vpb#branch                     -2.07608e-11
x6:vnb#branch                      3.62005e-12
x6:vgnd#branch                     2.12257e-11
x6:a#branch                                  0
x5:x#branch                                  0
x5:vpwr#branch                    -2.04259e-12
x5:vpb#branch                     -1.03803e-11
x5:vnb#branch                      1.81003e-12
x5:vgnd#branch                     1.06128e-11
x5:a#branch                                  0
x4:x#branch                                  0
x4:vpwr#branch                     -1.9439e-12
x4:vpb#branch                      -5.1902e-12
x4:vnb#branch                      1.81003e-12
x4:vgnd#branch                     5.32401e-12
x4:a#branch                                  0
x3:x#branch                                  0
x3:vpwr#branch                    -2.01847e-12
x3:vpb#branch                     -1.80997e-12
x3:vnb#branch                      1.81009e-12
x3:vgnd#branch                     2.01837e-12
x3:a#branch                                  0
x2:vss#branch                                0
x2:clk#branch                     -4.84676e-27
x2:vdd#branch                      4.96131e-15
vmeas_current_gnd#branch           4.57125e-05
vmeas_current_vdd#branch           4.57125e-05
v2#branch                         -4.57126e-05
x1:vctrl#branch                              0
x1:out#branch                      4.84676e-27
x1:vss#branch                      4.57125e-05
x1:vdd#branch                     -4.57125e-05


No. of Data Rows : 7020

  Measurements for Transient Analysis

tvco_outside_while  =  2.453048e-10 targ=  1.393020e-08 trig=  1.368490e-08
fvco_outside_while  =  4.07656e+09
supply_current_rms_outside_while=   5.60259e-04 from=  1.00000e-08 to=  4.00000e-08
ground_current_rms_outside_while=   5.61536e-04 from=  1.00000e-08 to=  4.00000e-08
vctrl_avg_outside_while=  1.800000e+00 from=  1.000000e-08 to=  2.000500e-08
vhigh_outside_while =  1.910717e+00 at=  1.621500e-08
vlow_outside_while  =  -8.367983e-02 at=  1.562500e-08
peak_to_peak_outside_while=  1.99440e+00
supply_current_rms  =   5.53405e-04 from=  0.00000e+00 to=  7.00000e-08

binary raw file "3-stage_cs-vco_tb_WITH_APPENDWRITE.raw"
Doing analysis at TEMP = 27.000000 and TNOM = 27.000000

Warning: v1: no DC value, transient time 0 value used

  Measurements for Transient Analysis

tvco_outside_while  =  2.453048e-10 targ=  1.393020e-08 trig=  1.368490e-08
Original line no.: 0, new internal line no.: 12503:
insertnumber: fails.
  s = ".meas tran fvco_outside_while param=    4.076560964643878e+09   " u="  4.076560964643878e+09  " id=0
fvco_outside_while  =  4.07656e+09
supply_current_rms_outside_while=   5.60259e-04 from=  1.00000e-08 to=  4.00000e-08
ground_current_rms_outside_while=   5.61536e-04 from=  1.00000e-08 to=  4.00000e-08
vctrl_avg_outside_while=  1.800000e+00 from=  1.000000e-08 to=  2.000500e-08
vhigh_outside_while =  1.910717e+00 at=  1.621500e-08
vlow_outside_while  =  -8.367983e-02 at=  1.562500e-08
Original line no.: 0, new internal line no.: 12509:
insertnumber: fails.
  s = ".meas tran peak_to_peak_outside_while param=    1.994396963740868e+00   " u="  1.994396963740868e+00  " id=0
peak_to_peak_outside_while=  1.99440e+00
supply_current_rms  =   5.53405e-04 from=  0.00000e+00 to=  7.00000e-08


Total analysis time (seconds) = 9.0219

Total CPU time (seconds) = 175.509 

Total DRAM available = 7955.125 MB.
DRAM currently available =  120.273 MB.
Maximum ngspice program size =  684.711 MB.
Current ngspice program size =  665.734 MB.

Shared ngspice pages =    8.738 MB.
Text (code) pages =    7.879 MB.
Stack = 0 bytes.
Library pages =  657.230 MB.

