
Compatibility modes selected: hs a

Warning: m=xx on .subckt line will override multiplier m hierarchy!


Circuit: ** sch_path: /home/darunix/gitsandboxes/vco/vco/xschem/3-stage_cs-vco_tb.sch

option SCALE: Scale is set to 1e-06 for instance and model parameters
Reset re-loads circuit ** sch_path: /home/darunix/gitsandboxes/vco/vco/xschem/3-stage_cs-vco_tb.sch

Circuit: ** sch_path: /home/darunix/gitsandboxes/vco/vco/xschem/3-stage_cs-vco_tb.sch

option SCALE: Scale is set to 1e-06 for instance and model parameters
Reset re-loads circuit ** sch_path: /home/darunix/gitsandboxes/vco/vco/xschem/3-stage_cs-vco_tb.sch

Circuit: ** sch_path: /home/darunix/gitsandboxes/vco/vco/xschem/3-stage_cs-vco_tb.sch

option SCALE: Scale is set to 1e-06 for instance and model parameters
Doing analysis at TEMP = 27.000000 and TNOM = 27.000000

Warning: v1: no DC value, transient time 0 value used

Initial Transient Solution
--------------------------

Node                                   Voltage
----                                   -------
int_out_x1_3                       6.80528e-09
int_net1_x1_1                              1.8
int_net2_x1_2                                0
int_vctrl_x1_4                               0
net1                                       1.8
net2                                         0
out                                6.80528e-09
vctrl                                        0
vdd                                        1.8
int_vdd_x2_1                               1.8
int_out_x2_2                       6.80528e-09
int_gnd_x2_3                                 0
int_gnd_x3_2                                 0
int_out_x3_1                       6.80528e-09
int_gnd_x3_3                                 0
int_buf1_out_x3_6                  2.60627e-09
int_vdd_x3_5                               1.8
int_vdd_x3_4                               1.8
buf1_out                           2.60627e-09
int_buf1_out_x4_1                  2.60627e-09
int_vdd_x4_5                               1.8
int_vdd_x4_4                               1.8
int_gnd_x4_2                                 0
int_gnd_x4_3                                 0
int_net4_x4_6                       4.9501e-09
net4                                4.9501e-09
int_vdd_x5_5                               1.8
int_net5_x5_6                       4.9501e-09
int_vdd_x5_4                               1.8
int_net4_x5_1                       4.9501e-09
int_gnd_x5_2                                 0
int_gnd_x5_3                                 0
net5                                4.9501e-09
int_net3_x6_6                       4.9501e-09
int_gnd_x6_2                                 0
int_gnd_x6_3                                 0
int_net5_x6_1                       4.9501e-09
int_vdd_x6_5                               1.8
int_vdd_x6_4                               1.8
net3                                4.9501e-09
int_vdd_x7_5                               1.8
int_buf16_out_x7_6                  4.9501e-09
int_vdd_x7_4                               1.8
int_gnd_x7_2                                 0
int_gnd_x7_3                                 0
int_net3_x7_1                       4.9501e-09
buf16_out                           4.9501e-09
v1#branch                                    0
x7:x#branch                                  0
x7:vpwr#branch                    -8.17036e-12
x7:vpb#branch                     -4.15224e-11
x7:vnb#branch                       7.2401e-12
x7:vgnd#branch                     4.24513e-11
x7:a#branch                                  0
x6:x#branch                                  0
x6:vpwr#branch                    -4.08518e-12
x6:vpb#branch                     -2.07605e-11
x6:vnb#branch                      3.62005e-12
x6:vgnd#branch                     2.12257e-11
x6:a#branch                                  0
x5:x#branch                                  0
x5:vpwr#branch                    -2.04259e-12
x5:vpb#branch                     -1.03802e-11
x5:vnb#branch                      1.81003e-12
x5:vgnd#branch                     1.06128e-11
x5:a#branch                                  0
x4:x#branch                                  0
x4:vpwr#branch                     -1.9439e-12
x4:vpb#branch                      -5.1902e-12
x4:vnb#branch                      1.81003e-12
x4:vgnd#branch                     5.32401e-12
x4:a#branch                                  0
x3:x#branch                                  0
x3:vpwr#branch                    -2.01847e-12
x3:vpb#branch                     -1.80998e-12
x3:vnb#branch                      1.81009e-12
x3:vgnd#branch                     2.01837e-12
x3:a#branch                                  0
x2:vss#branch                                0
x2:clk#branch                                0
x2:vdd#branch                      4.88498e-15
vmeas_current_gnd#branch           4.62723e-05
vmeas_current_vdd#branch           4.62723e-05
v2#branch                         -4.62724e-05
x1:vctrl#branch                              0
x1:out#branch                                0
x1:vss#branch                      4.62723e-05
x1:vdd#branch                     -4.62723e-05


No. of Data Rows : 7020

  Measurements for Transient Analysis


Error: measure  tvco_outside_while  (TRIG) : out of interval
 .meas tran tvco_outside_while trig v(out) val=0.5*1.8 rise=50 targ v(out) val=0.5*1.8 rise=51 failed!

Original line no.: 0, new internal line no.: 12503:
Undefined number [tvco_outside_while]
Original line no.: 0, new internal line no.: 12503:
Cannot compute substitute
fvco_outside_while  =   failed
supply_current_rms_outside_while=   2.53138e-05 from=  1.00000e-08 to=  4.00000e-08
ground_current_rms_outside_while=   4.26057e-05 from=  1.00000e-08 to=  4.00000e-08
vctrl_avg_outside_while=  0.000000e+00 from=  1.000000e-08 to=  2.000500e-08
vhigh_outside_while =  1.129125e-06 at=  1.001500e-08
vlow_outside_while  =  -1.118302e-06 at=  1.000500e-08
peak_to_peak_outside_while=  2.24743e-06
supply_current_rms  =   5.47458e-05 from=  0.00000e+00 to=  7.00000e-08

binary raw file "3-stage_cs-vco_tb_WITH_APPENDWRITE.raw"
Reset re-loads circuit ** sch_path: /home/darunix/gitsandboxes/vco/vco/xschem/3-stage_cs-vco_tb.sch

Circuit: ** sch_path: /home/darunix/gitsandboxes/vco/vco/xschem/3-stage_cs-vco_tb.sch

option SCALE: Scale is set to 1e-06 for instance and model parameters
Doing analysis at TEMP = 27.000000 and TNOM = 27.000000

Warning: v1: no DC value, transient time 0 value used

Initial Transient Solution
--------------------------

Node                                   Voltage
----                                   -------
int_out_x1_3                       6.80528e-09
int_net1_x1_1                              1.8
int_net2_x1_2                                0
int_vctrl_x1_4                               0
net1                                       1.8
net2                                         0
out                                6.80528e-09
vctrl                                        0
vdd                                        1.8
int_vdd_x2_1                               1.8
int_out_x2_2                       6.80528e-09
int_gnd_x2_3                                 0
int_gnd_x3_2                                 0
int_out_x3_1                       6.80528e-09
int_gnd_x3_3                                 0
int_buf1_out_x3_6                  2.60627e-09
int_vdd_x3_5                               1.8
int_vdd_x3_4                               1.8
buf1_out                           2.60627e-09
int_buf1_out_x4_1                  2.60627e-09
int_vdd_x4_5                               1.8
int_vdd_x4_4                               1.8
int_gnd_x4_2                                 0
int_gnd_x4_3                                 0
int_net4_x4_6                       4.9501e-09
net4                                4.9501e-09
int_vdd_x5_5                               1.8
int_net5_x5_6                       4.9501e-09
int_vdd_x5_4                               1.8
int_net4_x5_1                       4.9501e-09
int_gnd_x5_2                                 0
int_gnd_x5_3                                 0
net5                                4.9501e-09
int_net3_x6_6                       4.9501e-09
int_gnd_x6_2                                 0
int_gnd_x6_3                                 0
int_net5_x6_1                       4.9501e-09
int_vdd_x6_5                               1.8
int_vdd_x6_4                               1.8
net3                                4.9501e-09
int_vdd_x7_5                               1.8
int_buf16_out_x7_6                  4.9501e-09
int_vdd_x7_4                               1.8
int_gnd_x7_2                                 0
int_gnd_x7_3                                 0
int_net3_x7_1                       4.9501e-09
buf16_out                           4.9501e-09
v1#branch                                    0
x7:x#branch                                  0
x7:vpwr#branch                    -8.17036e-12
x7:vpb#branch                     -4.15224e-11
x7:vnb#branch                       7.2401e-12
x7:vgnd#branch                     4.24513e-11
x7:a#branch                                  0
x6:x#branch                                  0
x6:vpwr#branch                    -4.08518e-12
x6:vpb#branch                     -2.07605e-11
x6:vnb#branch                      3.62005e-12
x6:vgnd#branch                     2.12257e-11
x6:a#branch                                  0
x5:x#branch                                  0
x5:vpwr#branch                    -2.04259e-12
x5:vpb#branch                     -1.03802e-11
x5:vnb#branch                      1.81003e-12
x5:vgnd#branch                     1.06128e-11
x5:a#branch                                  0
x4:x#branch                                  0
x4:vpwr#branch                     -1.9439e-12
x4:vpb#branch                      -5.1902e-12
x4:vnb#branch                      1.81003e-12
x4:vgnd#branch                     5.32401e-12
x4:a#branch                                  0
x3:x#branch                                  0
x3:vpwr#branch                    -2.01847e-12
x3:vpb#branch                     -1.80998e-12
x3:vnb#branch                      1.81009e-12
x3:vgnd#branch                     2.01837e-12
x3:a#branch                                  0
x2:vss#branch                                0
x2:clk#branch                                0
x2:vdd#branch                      4.88498e-15
vmeas_current_gnd#branch           4.62723e-05
vmeas_current_vdd#branch           4.62723e-05
v2#branch                         -4.62724e-05
x1:vctrl#branch                              0
x1:out#branch                                0
x1:vss#branch                      4.62723e-05
x1:vdd#branch                     -4.62723e-05


No. of Data Rows : 7020

  Measurements for Transient Analysis


Error: measure  tvco_outside_while  (TRIG) : out of interval
 .meas tran tvco_outside_while trig v(out) val=0.5*1.8 rise=50 targ v(out) val=0.5*1.8 rise=51 failed!

Original line no.: 0, new internal line no.: 12503:
Undefined number [tvco_outside_while]
Original line no.: 0, new internal line no.: 12503:
Cannot compute substitute
fvco_outside_while  =   failed
supply_current_rms_outside_while=   3.15793e-05 from=  1.00000e-08 to=  4.00000e-08
ground_current_rms_outside_while=   1.87151e-05 from=  1.00000e-08 to=  4.00000e-08
vctrl_avg_outside_while=  1.000000e-01 from=  1.000000e-08 to=  2.000500e-08
vhigh_outside_while =  2.886023e-06 at=  1.000500e-08
vlow_outside_while  =  -2.868703e-06 at=  1.001500e-08
peak_to_peak_outside_while=  5.75473e-06
supply_current_rms  =   5.73279e-05 from=  0.00000e+00 to=  7.00000e-08

binary raw file "3-stage_cs-vco_tb_WITH_APPENDWRITE.raw"
Reset re-loads circuit ** sch_path: /home/darunix/gitsandboxes/vco/vco/xschem/3-stage_cs-vco_tb.sch

Circuit: ** sch_path: /home/darunix/gitsandboxes/vco/vco/xschem/3-stage_cs-vco_tb.sch

option SCALE: Scale is set to 1e-06 for instance and model parameters
Doing analysis at TEMP = 27.000000 and TNOM = 27.000000

Warning: v1: no DC value, transient time 0 value used

Initial Transient Solution
--------------------------

Node                                   Voltage
----                                   -------
int_out_x1_3                       6.80528e-09
int_net1_x1_1                              1.8
int_net2_x1_2                                0
int_vctrl_x1_4                               0
net1                                       1.8
net2                                         0
out                                6.80528e-09
vctrl                                        0
vdd                                        1.8
int_vdd_x2_1                               1.8
int_out_x2_2                       6.80528e-09
int_gnd_x2_3                                 0
int_gnd_x3_2                                 0
int_out_x3_1                       6.80528e-09
int_gnd_x3_3                                 0
int_buf1_out_x3_6                  2.60627e-09
int_vdd_x3_5                               1.8
int_vdd_x3_4                               1.8
buf1_out                           2.60627e-09
int_buf1_out_x4_1                  2.60627e-09
int_vdd_x4_5                               1.8
int_vdd_x4_4                               1.8
int_gnd_x4_2                                 0
int_gnd_x4_3                                 0
int_net4_x4_6                       4.9501e-09
net4                                4.9501e-09
int_vdd_x5_5                               1.8
int_net5_x5_6                       4.9501e-09
int_vdd_x5_4                               1.8
int_net4_x5_1                       4.9501e-09
int_gnd_x5_2                                 0
int_gnd_x5_3                                 0
net5                                4.9501e-09
int_net3_x6_6                       4.9501e-09
int_gnd_x6_2                                 0
int_gnd_x6_3                                 0
int_net5_x6_1                       4.9501e-09
int_vdd_x6_5                               1.8
int_vdd_x6_4                               1.8
net3                                4.9501e-09
int_vdd_x7_5                               1.8
int_buf16_out_x7_6                  4.9501e-09
int_vdd_x7_4                               1.8
int_gnd_x7_2                                 0
int_gnd_x7_3                                 0
int_net3_x7_1                       4.9501e-09
buf16_out                           4.9501e-09
v1#branch                                    0
x7:x#branch                                  0
x7:vpwr#branch                    -8.17036e-12
x7:vpb#branch                     -4.15224e-11
x7:vnb#branch                       7.2401e-12
x7:vgnd#branch                     4.24513e-11
x7:a#branch                                  0
x6:x#branch                                  0
x6:vpwr#branch                    -4.08518e-12
x6:vpb#branch                     -2.07605e-11
x6:vnb#branch                      3.62005e-12
x6:vgnd#branch                     2.12257e-11
x6:a#branch                                  0
x5:x#branch                                  0
x5:vpwr#branch                    -2.04259e-12
x5:vpb#branch                     -1.03802e-11
x5:vnb#branch                      1.81003e-12
x5:vgnd#branch                     1.06128e-11
x5:a#branch                                  0
x4:x#branch                                  0
x4:vpwr#branch                     -1.9439e-12
x4:vpb#branch                      -5.1902e-12
x4:vnb#branch                      1.81003e-12
x4:vgnd#branch                     5.32401e-12
x4:a#branch                                  0
x3:x#branch                                  0
x3:vpwr#branch                    -2.01847e-12
x3:vpb#branch                     -1.80998e-12
x3:vnb#branch                      1.81009e-12
x3:vgnd#branch                     2.01837e-12
x3:a#branch                                  0
x2:vss#branch                                0
x2:clk#branch                                0
x2:vdd#branch                      4.88498e-15
vmeas_current_gnd#branch           4.62723e-05
vmeas_current_vdd#branch           4.62723e-05
v2#branch                         -4.62724e-05
x1:vctrl#branch                              0
x1:out#branch                                0
x1:vss#branch                      4.62723e-05
x1:vdd#branch                     -4.62723e-05


No. of Data Rows : 7020

  Measurements for Transient Analysis


Error: measure  tvco_outside_while  (TRIG) : out of interval
 .meas tran tvco_outside_while trig v(out) val=0.5*1.8 rise=50 targ v(out) val=0.5*1.8 rise=51 failed!

Original line no.: 0, new internal line no.: 12503:
Undefined number [tvco_outside_while]
Original line no.: 0, new internal line no.: 12503:
Cannot compute substitute
fvco_outside_while  =   failed
supply_current_rms_outside_while=   3.39398e-05 from=  1.00000e-08 to=  4.00000e-08
ground_current_rms_outside_while=   2.09614e-05 from=  1.00000e-08 to=  4.00000e-08
vctrl_avg_outside_while=  2.000000e-01 from=  1.000000e-08 to=  2.000500e-08
vhigh_outside_while =  7.266411e-07 at=  1.001500e-08
vlow_outside_while  =  -7.143019e-07 at=  1.000500e-08
peak_to_peak_outside_while=  1.44094e-06
supply_current_rms  =   5.89225e-05 from=  0.00000e+00 to=  7.00000e-08

binary raw file "3-stage_cs-vco_tb_WITH_APPENDWRITE.raw"
Reset re-loads circuit ** sch_path: /home/darunix/gitsandboxes/vco/vco/xschem/3-stage_cs-vco_tb.sch

Circuit: ** sch_path: /home/darunix/gitsandboxes/vco/vco/xschem/3-stage_cs-vco_tb.sch

option SCALE: Scale is set to 1e-06 for instance and model parameters
Doing analysis at TEMP = 27.000000 and TNOM = 27.000000

Warning: v1: no DC value, transient time 0 value used

Initial Transient Solution
--------------------------

Node                                   Voltage
----                                   -------
int_out_x1_3                       6.80528e-09
int_net1_x1_1                              1.8
int_net2_x1_2                                0
int_vctrl_x1_4                               0
net1                                       1.8
net2                                         0
out                                6.80528e-09
vctrl                                        0
vdd                                        1.8
int_vdd_x2_1                               1.8
int_out_x2_2                       6.80528e-09
int_gnd_x2_3                                 0
int_gnd_x3_2                                 0
int_out_x3_1                       6.80528e-09
int_gnd_x3_3                                 0
int_buf1_out_x3_6                  2.60627e-09
int_vdd_x3_5                               1.8
int_vdd_x3_4                               1.8
buf1_out                           2.60627e-09
int_buf1_out_x4_1                  2.60627e-09
int_vdd_x4_5                               1.8
int_vdd_x4_4                               1.8
int_gnd_x4_2                                 0
int_gnd_x4_3                                 0
int_net4_x4_6                       4.9501e-09
net4                                4.9501e-09
int_vdd_x5_5                               1.8
int_net5_x5_6                       4.9501e-09
int_vdd_x5_4                               1.8
int_net4_x5_1                       4.9501e-09
int_gnd_x5_2                                 0
int_gnd_x5_3                                 0
net5                                4.9501e-09
int_net3_x6_6                       4.9501e-09
int_gnd_x6_2                                 0
int_gnd_x6_3                                 0
int_net5_x6_1                       4.9501e-09
int_vdd_x6_5                               1.8
int_vdd_x6_4                               1.8
net3                                4.9501e-09
int_vdd_x7_5                               1.8
int_buf16_out_x7_6                  4.9501e-09
int_vdd_x7_4                               1.8
int_gnd_x7_2                                 0
int_gnd_x7_3                                 0
int_net3_x7_1                       4.9501e-09
buf16_out                           4.9501e-09
v1#branch                                    0
x7:x#branch                                  0
x7:vpwr#branch                    -8.17036e-12
x7:vpb#branch                     -4.15224e-11
x7:vnb#branch                       7.2401e-12
x7:vgnd#branch                     4.24513e-11
x7:a#branch                                  0
x6:x#branch                                  0
x6:vpwr#branch                    -4.08518e-12
x6:vpb#branch                     -2.07605e-11
x6:vnb#branch                      3.62005e-12
x6:vgnd#branch                     2.12257e-11
x6:a#branch                                  0
x5:x#branch                                  0
x5:vpwr#branch                    -2.04259e-12
x5:vpb#branch                     -1.03802e-11
x5:vnb#branch                      1.81003e-12
x5:vgnd#branch                     1.06128e-11
x5:a#branch                                  0
x4:x#branch                                  0
x4:vpwr#branch                     -1.9439e-12
x4:vpb#branch                      -5.1902e-12
x4:vnb#branch                      1.81003e-12
x4:vgnd#branch                     5.32401e-12
x4:a#branch                                  0
x3:x#branch                                  0
x3:vpwr#branch                    -2.01847e-12
x3:vpb#branch                     -1.80998e-12
x3:vnb#branch                      1.81009e-12
x3:vgnd#branch                     2.01837e-12
x3:a#branch                                  0
x2:vss#branch                                0
x2:clk#branch                                0
x2:vdd#branch                      4.88498e-15
vmeas_current_gnd#branch           4.62723e-05
vmeas_current_vdd#branch           4.62723e-05
v2#branch                         -4.62724e-05
x1:vctrl#branch                              0
x1:out#branch                                0
x1:vss#branch                      4.62723e-05
x1:vdd#branch                     -4.62723e-05


No. of Data Rows : 7020

  Measurements for Transient Analysis


Error: measure  tvco_outside_while  (TRIG) : out of interval
 .meas tran tvco_outside_while trig v(out) val=0.5*1.8 rise=50 targ v(out) val=0.5*1.8 rise=51 failed!

Original line no.: 0, new internal line no.: 12503:
Undefined number [tvco_outside_while]
Original line no.: 0, new internal line no.: 12503:
Cannot compute substitute
fvco_outside_while  =   failed
supply_current_rms_outside_while=   2.63014e-05 from=  1.00000e-08 to=  4.00000e-08
ground_current_rms_outside_while=   2.62008e-05 from=  1.00000e-08 to=  4.00000e-08
vctrl_avg_outside_while=  3.000000e-01 from=  1.000000e-08 to=  2.000500e-08
vhigh_outside_while =  8.848695e-07 at=  1.814500e-08
vlow_outside_while  =  -8.712259e-07 at=  1.815500e-08
peak_to_peak_outside_while=  1.75610e-06
supply_current_rms  =   5.46776e-05 from=  0.00000e+00 to=  7.00000e-08

binary raw file "3-stage_cs-vco_tb_WITH_APPENDWRITE.raw"
Reset re-loads circuit ** sch_path: /home/darunix/gitsandboxes/vco/vco/xschem/3-stage_cs-vco_tb.sch

Circuit: ** sch_path: /home/darunix/gitsandboxes/vco/vco/xschem/3-stage_cs-vco_tb.sch

option SCALE: Scale is set to 1e-06 for instance and model parameters
Doing analysis at TEMP = 27.000000 and TNOM = 27.000000

Warning: v1: no DC value, transient time 0 value used

Initial Transient Solution
--------------------------

Node                                   Voltage
----                                   -------
int_out_x1_3                       6.80528e-09
int_net1_x1_1                              1.8
int_net2_x1_2                                0
int_vctrl_x1_4                               0
net1                                       1.8
net2                                         0
out                                6.80528e-09
vctrl                                        0
vdd                                        1.8
int_vdd_x2_1                               1.8
int_out_x2_2                       6.80528e-09
int_gnd_x2_3                                 0
int_gnd_x3_2                                 0
int_out_x3_1                       6.80528e-09
int_gnd_x3_3                                 0
int_buf1_out_x3_6                  2.60627e-09
int_vdd_x3_5                               1.8
int_vdd_x3_4                               1.8
buf1_out                           2.60627e-09
int_buf1_out_x4_1                  2.60627e-09
int_vdd_x4_5                               1.8
int_vdd_x4_4                               1.8
int_gnd_x4_2                                 0
int_gnd_x4_3                                 0
int_net4_x4_6                       4.9501e-09
net4                                4.9501e-09
int_vdd_x5_5                               1.8
int_net5_x5_6                       4.9501e-09
int_vdd_x5_4                               1.8
int_net4_x5_1                       4.9501e-09
int_gnd_x5_2                                 0
int_gnd_x5_3                                 0
net5                                4.9501e-09
int_net3_x6_6                       4.9501e-09
int_gnd_x6_2                                 0
int_gnd_x6_3                                 0
int_net5_x6_1                       4.9501e-09
int_vdd_x6_5                               1.8
int_vdd_x6_4                               1.8
net3                                4.9501e-09
int_vdd_x7_5                               1.8
int_buf16_out_x7_6                  4.9501e-09
int_vdd_x7_4                               1.8
int_gnd_x7_2                                 0
int_gnd_x7_3                                 0
int_net3_x7_1                       4.9501e-09
buf16_out                           4.9501e-09
v1#branch                                    0
x7:x#branch                                  0
x7:vpwr#branch                    -8.17036e-12
x7:vpb#branch                     -4.15224e-11
x7:vnb#branch                       7.2401e-12
x7:vgnd#branch                     4.24513e-11
x7:a#branch                                  0
x6:x#branch                                  0
x6:vpwr#branch                    -4.08518e-12
x6:vpb#branch                     -2.07605e-11
x6:vnb#branch                      3.62005e-12
x6:vgnd#branch                     2.12257e-11
x6:a#branch                                  0
x5:x#branch                                  0
x5:vpwr#branch                    -2.04259e-12
x5:vpb#branch                     -1.03802e-11
x5:vnb#branch                      1.81003e-12
x5:vgnd#branch                     1.06128e-11
x5:a#branch                                  0
x4:x#branch                                  0
x4:vpwr#branch                     -1.9439e-12
x4:vpb#branch                      -5.1902e-12
x4:vnb#branch                      1.81003e-12
x4:vgnd#branch                     5.32401e-12
x4:a#branch                                  0
x3:x#branch                                  0
x3:vpwr#branch                    -2.01847e-12
x3:vpb#branch                     -1.80998e-12
x3:vnb#branch                      1.81009e-12
x3:vgnd#branch                     2.01837e-12
x3:a#branch                                  0
x2:vss#branch                                0
x2:clk#branch                                0
x2:vdd#branch                      4.88498e-15
vmeas_current_gnd#branch           4.62723e-05
vmeas_current_vdd#branch           4.62723e-05
v2#branch                         -4.62724e-05
x1:vctrl#branch                              0
x1:out#branch                                0
x1:vss#branch                      4.62723e-05
x1:vdd#branch                     -4.62723e-05


No. of Data Rows : 7020

  Measurements for Transient Analysis


Error: measure  tvco_outside_while  (TRIG) : out of interval
 .meas tran tvco_outside_while trig v(out) val=0.5*1.8 rise=50 targ v(out) val=0.5*1.8 rise=51 failed!

Original line no.: 0, new internal line no.: 12503:
Undefined number [tvco_outside_while]
Original line no.: 0, new internal line no.: 12503:
Cannot compute substitute
fvco_outside_while  =   failed
supply_current_rms_outside_while=   1.65309e-05 from=  1.00000e-08 to=  4.00000e-08
ground_current_rms_outside_while=   2.45277e-05 from=  1.00000e-08 to=  4.00000e-08
vctrl_avg_outside_while=  4.000000e-01 from=  1.000000e-08 to=  2.000500e-08
vhigh_outside_while =  5.051472e-06 at=  1.000500e-08
vlow_outside_while  =  -5.030846e-06 at=  1.001500e-08
peak_to_peak_outside_while=  1.00823e-05
supply_current_rms  =   5.19956e-05 from=  0.00000e+00 to=  7.00000e-08

binary raw file "3-stage_cs-vco_tb_WITH_APPENDWRITE.raw"
Reset re-loads circuit ** sch_path: /home/darunix/gitsandboxes/vco/vco/xschem/3-stage_cs-vco_tb.sch

Circuit: ** sch_path: /home/darunix/gitsandboxes/vco/vco/xschem/3-stage_cs-vco_tb.sch

option SCALE: Scale is set to 1e-06 for instance and model parameters
Doing analysis at TEMP = 27.000000 and TNOM = 27.000000

Warning: v1: no DC value, transient time 0 value used

Initial Transient Solution
--------------------------

Node                                   Voltage
----                                   -------
int_out_x1_3                       6.80528e-09
int_net1_x1_1                              1.8
int_net2_x1_2                                0
int_vctrl_x1_4                               0
net1                                       1.8
net2                                         0
out                                6.80528e-09
vctrl                                        0
vdd                                        1.8
int_vdd_x2_1                               1.8
int_out_x2_2                       6.80528e-09
int_gnd_x2_3                                 0
int_gnd_x3_2                                 0
int_out_x3_1                       6.80528e-09
int_gnd_x3_3                                 0
int_buf1_out_x3_6                  2.60627e-09
int_vdd_x3_5                               1.8
int_vdd_x3_4                               1.8
buf1_out                           2.60627e-09
int_buf1_out_x4_1                  2.60627e-09
int_vdd_x4_5                               1.8
int_vdd_x4_4                               1.8
int_gnd_x4_2                                 0
int_gnd_x4_3                                 0
int_net4_x4_6                       4.9501e-09
net4                                4.9501e-09
int_vdd_x5_5                               1.8
int_net5_x5_6                       4.9501e-09
int_vdd_x5_4                               1.8
int_net4_x5_1                       4.9501e-09
int_gnd_x5_2                                 0
int_gnd_x5_3                                 0
net5                                4.9501e-09
int_net3_x6_6                       4.9501e-09
int_gnd_x6_2                                 0
int_gnd_x6_3                                 0
int_net5_x6_1                       4.9501e-09
int_vdd_x6_5                               1.8
int_vdd_x6_4                               1.8
net3                                4.9501e-09
int_vdd_x7_5                               1.8
int_buf16_out_x7_6                  4.9501e-09
int_vdd_x7_4                               1.8
int_gnd_x7_2                                 0
int_gnd_x7_3                                 0
int_net3_x7_1                       4.9501e-09
buf16_out                           4.9501e-09
v1#branch                                    0
x7:x#branch                                  0
x7:vpwr#branch                    -8.17036e-12
x7:vpb#branch                     -4.15224e-11
x7:vnb#branch                       7.2401e-12
x7:vgnd#branch                     4.24513e-11
x7:a#branch                                  0
x6:x#branch                                  0
x6:vpwr#branch                    -4.08518e-12
x6:vpb#branch                     -2.07605e-11
x6:vnb#branch                      3.62005e-12
x6:vgnd#branch                     2.12257e-11
x6:a#branch                                  0
x5:x#branch                                  0
x5:vpwr#branch                    -2.04259e-12
x5:vpb#branch                     -1.03802e-11
x5:vnb#branch                      1.81003e-12
x5:vgnd#branch                     1.06128e-11
x5:a#branch                                  0
x4:x#branch                                  0
x4:vpwr#branch                     -1.9439e-12
x4:vpb#branch                      -5.1902e-12
x4:vnb#branch                      1.81003e-12
x4:vgnd#branch                     5.32401e-12
x4:a#branch                                  0
x3:x#branch                                  0
x3:vpwr#branch                    -2.01847e-12
x3:vpb#branch                     -1.80998e-12
x3:vnb#branch                      1.81009e-12
x3:vgnd#branch                     2.01837e-12
x3:a#branch                                  0
x2:vss#branch                                0
x2:clk#branch                                0
x2:vdd#branch                      4.88498e-15
vmeas_current_gnd#branch           4.62723e-05
vmeas_current_vdd#branch           4.62723e-05
v2#branch                         -4.62724e-05
x1:vctrl#branch                              0
x1:out#branch                                0
x1:vss#branch                      4.62723e-05
x1:vdd#branch                     -4.62723e-05


No. of Data Rows : 7020

  Measurements for Transient Analysis


Error: measure  tvco_outside_while  (TRIG) : out of interval
 .meas tran tvco_outside_while trig v(out) val=0.5*1.8 rise=50 targ v(out) val=0.5*1.8 rise=51 failed!

Original line no.: 0, new internal line no.: 12503:
Undefined number [tvco_outside_while]
Original line no.: 0, new internal line no.: 12503:
Cannot compute substitute
fvco_outside_while  =   failed
supply_current_rms_outside_while=   7.04542e-05 from=  1.00000e-08 to=  4.00000e-08
ground_current_rms_outside_while=   6.75481e-05 from=  1.00000e-08 to=  4.00000e-08
vctrl_avg_outside_while=  5.000000e-01 from=  1.000000e-08 to=  2.000500e-08
vhigh_outside_while =  1.922754e+00 at=  1.472500e-08
vlow_outside_while  =  -8.342222e-02 at=  1.459500e-08
peak_to_peak_outside_while=  2.00618e+00
supply_current_rms  =   8.42989e-05 from=  0.00000e+00 to=  7.00000e-08

binary raw file "3-stage_cs-vco_tb_WITH_APPENDWRITE.raw"
Reset re-loads circuit ** sch_path: /home/darunix/gitsandboxes/vco/vco/xschem/3-stage_cs-vco_tb.sch

Circuit: ** sch_path: /home/darunix/gitsandboxes/vco/vco/xschem/3-stage_cs-vco_tb.sch

option SCALE: Scale is set to 1e-06 for instance and model parameters
Doing analysis at TEMP = 27.000000 and TNOM = 27.000000

Warning: v1: no DC value, transient time 0 value used

Initial Transient Solution
--------------------------

Node                                   Voltage
----                                   -------
int_out_x1_3                       6.80528e-09
int_net1_x1_1                              1.8
int_net2_x1_2                                0
int_vctrl_x1_4                               0
net1                                       1.8
net2                                         0
out                                6.80528e-09
vctrl                                        0
vdd                                        1.8
int_vdd_x2_1                               1.8
int_out_x2_2                       6.80528e-09
int_gnd_x2_3                                 0
int_gnd_x3_2                                 0
int_out_x3_1                       6.80528e-09
int_gnd_x3_3                                 0
int_buf1_out_x3_6                  2.60627e-09
int_vdd_x3_5                               1.8
int_vdd_x3_4                               1.8
buf1_out                           2.60627e-09
int_buf1_out_x4_1                  2.60627e-09
int_vdd_x4_5                               1.8
int_vdd_x4_4                               1.8
int_gnd_x4_2                                 0
int_gnd_x4_3                                 0
int_net4_x4_6                       4.9501e-09
net4                                4.9501e-09
int_vdd_x5_5                               1.8
int_net5_x5_6                       4.9501e-09
int_vdd_x5_4                               1.8
int_net4_x5_1                       4.9501e-09
int_gnd_x5_2                                 0
int_gnd_x5_3                                 0
net5                                4.9501e-09
int_net3_x6_6                       4.9501e-09
int_gnd_x6_2                                 0
int_gnd_x6_3                                 0
int_net5_x6_1                       4.9501e-09
int_vdd_x6_5                               1.8
int_vdd_x6_4                               1.8
net3                                4.9501e-09
int_vdd_x7_5                               1.8
int_buf16_out_x7_6                  4.9501e-09
int_vdd_x7_4                               1.8
int_gnd_x7_2                                 0
int_gnd_x7_3                                 0
int_net3_x7_1                       4.9501e-09
buf16_out                           4.9501e-09
v1#branch                                    0
x7:x#branch                                  0
x7:vpwr#branch                    -8.17036e-12
x7:vpb#branch                     -4.15224e-11
x7:vnb#branch                       7.2401e-12
x7:vgnd#branch                     4.24513e-11
x7:a#branch                                  0
x6:x#branch                                  0
x6:vpwr#branch                    -4.08518e-12
x6:vpb#branch                     -2.07605e-11
x6:vnb#branch                      3.62005e-12
x6:vgnd#branch                     2.12257e-11
x6:a#branch                                  0
x5:x#branch                                  0
x5:vpwr#branch                    -2.04259e-12
x5:vpb#branch                     -1.03802e-11
x5:vnb#branch                      1.81003e-12
x5:vgnd#branch                     1.06128e-11
x5:a#branch                                  0
x4:x#branch                                  0
x4:vpwr#branch                     -1.9439e-12
x4:vpb#branch                      -5.1902e-12
x4:vnb#branch                      1.81003e-12
x4:vgnd#branch                     5.32401e-12
x4:a#branch                                  0
x3:x#branch                                  0
x3:vpwr#branch                    -2.01847e-12
x3:vpb#branch                     -1.80998e-12
x3:vnb#branch                      1.81009e-12
x3:vgnd#branch                     2.01837e-12
x3:a#branch                                  0
x2:vss#branch                                0
x2:clk#branch                                0
x2:vdd#branch                      4.88498e-15
vmeas_current_gnd#branch           4.62723e-05
vmeas_current_vdd#branch           4.62723e-05
v2#branch                         -4.62724e-05
x1:vctrl#branch                              0
x1:out#branch                                0
x1:vss#branch                      4.62723e-05
x1:vdd#branch                     -4.62723e-05


No. of Data Rows : 7020

  Measurements for Transient Analysis


Error: measure  tvco_outside_while  (TRIG) : out of interval
 .meas tran tvco_outside_while trig v(out) val=0.5*1.8 rise=50 targ v(out) val=0.5*1.8 rise=51 failed!

Original line no.: 0, new internal line no.: 12503:
Undefined number [tvco_outside_while]
Original line no.: 0, new internal line no.: 12503:
Cannot compute substitute
fvco_outside_while  =   failed
supply_current_rms_outside_while=   9.13072e-05 from=  1.00000e-08 to=  4.00000e-08
ground_current_rms_outside_while=   1.05355e-04 from=  1.00000e-08 to=  4.00000e-08
vctrl_avg_outside_while=  6.000000e-01 from=  1.000000e-08 to=  2.000500e-08
vhigh_outside_while =  1.923655e+00 at=  1.197500e-08
vlow_outside_while  =  -8.147752e-02 at=  1.011500e-08
peak_to_peak_outside_while=  2.00513e+00
supply_current_rms  =   1.04676e-04 from=  0.00000e+00 to=  7.00000e-08

binary raw file "3-stage_cs-vco_tb_WITH_APPENDWRITE.raw"
Reset re-loads circuit ** sch_path: /home/darunix/gitsandboxes/vco/vco/xschem/3-stage_cs-vco_tb.sch

Circuit: ** sch_path: /home/darunix/gitsandboxes/vco/vco/xschem/3-stage_cs-vco_tb.sch

option SCALE: Scale is set to 1e-06 for instance and model parameters
Doing analysis at TEMP = 27.000000 and TNOM = 27.000000

Warning: v1: no DC value, transient time 0 value used

Initial Transient Solution
--------------------------

Node                                   Voltage
----                                   -------
int_out_x1_3                       6.80528e-09
int_net1_x1_1                              1.8
int_net2_x1_2                                0
int_vctrl_x1_4                               0
net1                                       1.8
net2                                         0
out                                6.80528e-09
vctrl                                        0
vdd                                        1.8
int_vdd_x2_1                               1.8
int_out_x2_2                       6.80528e-09
int_gnd_x2_3                                 0
int_gnd_x3_2                                 0
int_out_x3_1                       6.80528e-09
int_gnd_x3_3                                 0
int_buf1_out_x3_6                  2.60627e-09
int_vdd_x3_5                               1.8
int_vdd_x3_4                               1.8
buf1_out                           2.60627e-09
int_buf1_out_x4_1                  2.60627e-09
int_vdd_x4_5                               1.8
int_vdd_x4_4                               1.8
int_gnd_x4_2                                 0
int_gnd_x4_3                                 0
int_net4_x4_6                       4.9501e-09
net4                                4.9501e-09
int_vdd_x5_5                               1.8
int_net5_x5_6                       4.9501e-09
int_vdd_x5_4                               1.8
int_net4_x5_1                       4.9501e-09
int_gnd_x5_2                                 0
int_gnd_x5_3                                 0
net5                                4.9501e-09
int_net3_x6_6                       4.9501e-09
int_gnd_x6_2                                 0
int_gnd_x6_3                                 0
int_net5_x6_1                       4.9501e-09
int_vdd_x6_5                               1.8
int_vdd_x6_4                               1.8
net3                                4.9501e-09
int_vdd_x7_5                               1.8
int_buf16_out_x7_6                  4.9501e-09
int_vdd_x7_4                               1.8
int_gnd_x7_2                                 0
int_gnd_x7_3                                 0
int_net3_x7_1                       4.9501e-09
buf16_out                           4.9501e-09
v1#branch                                    0
x7:x#branch                                  0
x7:vpwr#branch                    -8.17036e-12
x7:vpb#branch                     -4.15224e-11
x7:vnb#branch                       7.2401e-12
x7:vgnd#branch                     4.24513e-11
x7:a#branch                                  0
x6:x#branch                                  0
x6:vpwr#branch                    -4.08518e-12
x6:vpb#branch                     -2.07605e-11
x6:vnb#branch                      3.62005e-12
x6:vgnd#branch                     2.12257e-11
x6:a#branch                                  0
x5:x#branch                                  0
x5:vpwr#branch                    -2.04259e-12
x5:vpb#branch                     -1.03802e-11
x5:vnb#branch                      1.81003e-12
x5:vgnd#branch                     1.06128e-11
x5:a#branch                                  0
x4:x#branch                                  0
x4:vpwr#branch                     -1.9439e-12
x4:vpb#branch                      -5.1902e-12
x4:vnb#branch                      1.81003e-12
x4:vgnd#branch                     5.32401e-12
x4:a#branch                                  0
x3:x#branch                                  0
x3:vpwr#branch                    -2.01847e-12
x3:vpb#branch                     -1.80998e-12
x3:vnb#branch                      1.81009e-12
x3:vgnd#branch                     2.01837e-12
x3:a#branch                                  0
x2:vss#branch                                0
x2:clk#branch                                0
x2:vdd#branch                      4.88498e-15
vmeas_current_gnd#branch           4.62723e-05
vmeas_current_vdd#branch           4.62723e-05
v2#branch                         -4.62724e-05
x1:vctrl#branch                              0
x1:out#branch                                0
x1:vss#branch                      4.62723e-05
x1:vdd#branch                     -4.62723e-05


No. of Data Rows : 7020

  Measurements for Transient Analysis

tvco_outside_while  =  6.149339e-10 targ=  3.079698e-08 trig=  3.018205e-08
fvco_outside_while  =  1.62619e+09
supply_current_rms_outside_while=   2.28230e-04 from=  1.00000e-08 to=  4.00000e-08
ground_current_rms_outside_while=   2.35744e-04 from=  1.00000e-08 to=  4.00000e-08
vctrl_avg_outside_while=  7.000000e-01 from=  1.000000e-08 to=  2.000500e-08
vhigh_outside_while =  1.929407e+00 at=  1.956500e-08
vlow_outside_while  =  -8.148000e-02 at=  1.171500e-08
peak_to_peak_outside_while=  2.01089e+00
supply_current_rms  =   2.29102e-04 from=  0.00000e+00 to=  7.00000e-08

binary raw file "3-stage_cs-vco_tb_WITH_APPENDWRITE.raw"
Reset re-loads circuit ** sch_path: /home/darunix/gitsandboxes/vco/vco/xschem/3-stage_cs-vco_tb.sch

Circuit: ** sch_path: /home/darunix/gitsandboxes/vco/vco/xschem/3-stage_cs-vco_tb.sch

option SCALE: Scale is set to 1e-06 for instance and model parameters
Doing analysis at TEMP = 27.000000 and TNOM = 27.000000

Warning: v1: no DC value, transient time 0 value used

Initial Transient Solution
--------------------------

Node                                   Voltage
----                                   -------
int_out_x1_3                       6.80528e-09
int_net1_x1_1                              1.8
int_net2_x1_2                                0
int_vctrl_x1_4                               0
net1                                       1.8
net2                                         0
out                                6.80528e-09
vctrl                                        0
vdd                                        1.8
int_vdd_x2_1                               1.8
int_out_x2_2                       6.80528e-09
int_gnd_x2_3                                 0
int_gnd_x3_2                                 0
int_out_x3_1                       6.80528e-09
int_gnd_x3_3                                 0
int_buf1_out_x3_6                  2.60627e-09
int_vdd_x3_5                               1.8
int_vdd_x3_4                               1.8
buf1_out                           2.60627e-09
int_buf1_out_x4_1                  2.60627e-09
int_vdd_x4_5                               1.8
int_vdd_x4_4                               1.8
int_gnd_x4_2                                 0
int_gnd_x4_3                                 0
int_net4_x4_6                       4.9501e-09
net4                                4.9501e-09
int_vdd_x5_5                               1.8
int_net5_x5_6                       4.9501e-09
int_vdd_x5_4                               1.8
int_net4_x5_1                       4.9501e-09
int_gnd_x5_2                                 0
int_gnd_x5_3                                 0
net5                                4.9501e-09
int_net3_x6_6                       4.9501e-09
int_gnd_x6_2                                 0
int_gnd_x6_3                                 0
int_net5_x6_1                       4.9501e-09
int_vdd_x6_5                               1.8
int_vdd_x6_4                               1.8
net3                                4.9501e-09
int_vdd_x7_5                               1.8
int_buf16_out_x7_6                  4.9501e-09
int_vdd_x7_4                               1.8
int_gnd_x7_2                                 0
int_gnd_x7_3                                 0
int_net3_x7_1                       4.9501e-09
buf16_out                           4.9501e-09
v1#branch                                    0
x7:x#branch                                  0
x7:vpwr#branch                    -8.17036e-12
x7:vpb#branch                     -4.15224e-11
x7:vnb#branch                       7.2401e-12
x7:vgnd#branch                     4.24513e-11
x7:a#branch                                  0
x6:x#branch                                  0
x6:vpwr#branch                    -4.08518e-12
x6:vpb#branch                     -2.07605e-11
x6:vnb#branch                      3.62005e-12
x6:vgnd#branch                     2.12257e-11
x6:a#branch                                  0
x5:x#branch                                  0
x5:vpwr#branch                    -2.04259e-12
x5:vpb#branch                     -1.03802e-11
x5:vnb#branch                      1.81003e-12
x5:vgnd#branch                     1.06128e-11
x5:a#branch                                  0
x4:x#branch                                  0
x4:vpwr#branch                     -1.9439e-12
x4:vpb#branch                      -5.1902e-12
x4:vnb#branch                      1.81003e-12
x4:vgnd#branch                     5.32401e-12
x4:a#branch                                  0
x3:x#branch                                  0
x3:vpwr#branch                    -2.01847e-12
x3:vpb#branch                     -1.80998e-12
x3:vnb#branch                      1.81009e-12
x3:vgnd#branch                     2.01837e-12
x3:a#branch                                  0
x2:vss#branch                                0
x2:clk#branch                                0
x2:vdd#branch                      4.88498e-15
vmeas_current_gnd#branch           4.62723e-05
vmeas_current_vdd#branch           4.62723e-05
v2#branch                         -4.62724e-05
x1:vctrl#branch                              0
x1:out#branch                                0
x1:vss#branch                      4.62723e-05
x1:vdd#branch                     -4.62723e-05


No. of Data Rows : 7020

  Measurements for Transient Analysis

tvco_outside_while  =  3.402937e-10 targ=  1.843733e-08 trig=  1.809704e-08
fvco_outside_while  =  2.93864e+09
supply_current_rms_outside_while=   3.95843e-04 from=  1.00000e-08 to=  4.00000e-08
ground_current_rms_outside_while=   3.81187e-04 from=  1.00000e-08 to=  4.00000e-08
vctrl_avg_outside_while=  8.000000e-01 from=  1.000000e-08 to=  2.000500e-08
vhigh_outside_while =  1.929528e+00 at=  1.927500e-08
vlow_outside_while  =  -8.477888e-02 at=  1.126500e-08
peak_to_peak_outside_while=  2.01431e+00
supply_current_rms  =   3.93347e-04 from=  0.00000e+00 to=  7.00000e-08

binary raw file "3-stage_cs-vco_tb_WITH_APPENDWRITE.raw"
Reset re-loads circuit ** sch_path: /home/darunix/gitsandboxes/vco/vco/xschem/3-stage_cs-vco_tb.sch

Circuit: ** sch_path: /home/darunix/gitsandboxes/vco/vco/xschem/3-stage_cs-vco_tb.sch

option SCALE: Scale is set to 1e-06 for instance and model parameters
Doing analysis at TEMP = 27.000000 and TNOM = 27.000000

Warning: v1: no DC value, transient time 0 value used

Initial Transient Solution
--------------------------

Node                                   Voltage
----                                   -------
int_out_x1_3                       6.80528e-09
int_net1_x1_1                              1.8
int_net2_x1_2                                0
int_vctrl_x1_4                               0
net1                                       1.8
net2                                         0
out                                6.80528e-09
vctrl                                        0
vdd                                        1.8
int_vdd_x2_1                               1.8
int_out_x2_2                       6.80528e-09
int_gnd_x2_3                                 0
int_gnd_x3_2                                 0
int_out_x3_1                       6.80528e-09
int_gnd_x3_3                                 0
int_buf1_out_x3_6                  2.60627e-09
int_vdd_x3_5                               1.8
int_vdd_x3_4                               1.8
buf1_out                           2.60627e-09
int_buf1_out_x4_1                  2.60627e-09
int_vdd_x4_5                               1.8
int_vdd_x4_4                               1.8
int_gnd_x4_2                                 0
int_gnd_x4_3                                 0
int_net4_x4_6                       4.9501e-09
net4                                4.9501e-09
int_vdd_x5_5                               1.8
int_net5_x5_6                       4.9501e-09
int_vdd_x5_4                               1.8
int_net4_x5_1                       4.9501e-09
int_gnd_x5_2                                 0
int_gnd_x5_3                                 0
net5                                4.9501e-09
int_net3_x6_6                       4.9501e-09
int_gnd_x6_2                                 0
int_gnd_x6_3                                 0
int_net5_x6_1                       4.9501e-09
int_vdd_x6_5                               1.8
int_vdd_x6_4                               1.8
net3                                4.9501e-09
int_vdd_x7_5                               1.8
int_buf16_out_x7_6                  4.9501e-09
int_vdd_x7_4                               1.8
int_gnd_x7_2                                 0
int_gnd_x7_3                                 0
int_net3_x7_1                       4.9501e-09
buf16_out                           4.9501e-09
v1#branch                                    0
x7:x#branch                                  0
x7:vpwr#branch                    -8.17036e-12
x7:vpb#branch                     -4.15224e-11
x7:vnb#branch                       7.2401e-12
x7:vgnd#branch                     4.24513e-11
x7:a#branch                                  0
x6:x#branch                                  0
x6:vpwr#branch                    -4.08518e-12
x6:vpb#branch                     -2.07605e-11
x6:vnb#branch                      3.62005e-12
x6:vgnd#branch                     2.12257e-11
x6:a#branch                                  0
x5:x#branch                                  0
x5:vpwr#branch                    -2.04259e-12
x5:vpb#branch                     -1.03802e-11
x5:vnb#branch                      1.81003e-12
x5:vgnd#branch                     1.06128e-11
x5:a#branch                                  0
x4:x#branch                                  0
x4:vpwr#branch                     -1.9439e-12
x4:vpb#branch                      -5.1902e-12
x4:vnb#branch                      1.81003e-12
x4:vgnd#branch                     5.32401e-12
x4:a#branch                                  0
x3:x#branch                                  0
x3:vpwr#branch                    -2.01847e-12
x3:vpb#branch                     -1.80998e-12
x3:vnb#branch                      1.81009e-12
x3:vgnd#branch                     2.01837e-12
x3:a#branch                                  0
x2:vss#branch                                0
x2:clk#branch                                0
x2:vdd#branch                      4.88498e-15
vmeas_current_gnd#branch           4.62723e-05
vmeas_current_vdd#branch           4.62723e-05
v2#branch                         -4.62724e-05
x1:vctrl#branch                              0
x1:out#branch                                0
x1:vss#branch                      4.62723e-05
x1:vdd#branch                     -4.62723e-05


No. of Data Rows : 7020

  Measurements for Transient Analysis

tvco_outside_while  =  2.811130e-10 targ=  1.563638e-08 trig=  1.535526e-08
fvco_outside_while  =  3.55729e+09
supply_current_rms_outside_while=   4.44171e-04 from=  1.00000e-08 to=  4.00000e-08
ground_current_rms_outside_while=   4.34395e-04 from=  1.00000e-08 to=  4.00000e-08
vctrl_avg_outside_while=  9.000000e-01 from=  1.000000e-08 to=  2.000500e-08
vhigh_outside_while =  1.927479e+00 at=  1.771500e-08
vlow_outside_while  =  -8.313838e-02 at=  1.842500e-08
peak_to_peak_outside_while=  2.01062e+00
supply_current_rms  =   4.39213e-04 from=  0.00000e+00 to=  7.00000e-08

binary raw file "3-stage_cs-vco_tb_WITH_APPENDWRITE.raw"
Reset re-loads circuit ** sch_path: /home/darunix/gitsandboxes/vco/vco/xschem/3-stage_cs-vco_tb.sch

Circuit: ** sch_path: /home/darunix/gitsandboxes/vco/vco/xschem/3-stage_cs-vco_tb.sch

option SCALE: Scale is set to 1e-06 for instance and model parameters
Doing analysis at TEMP = 27.000000 and TNOM = 27.000000

Warning: v1: no DC value, transient time 0 value used

Initial Transient Solution
--------------------------

Node                                   Voltage
----                                   -------
int_out_x1_3                       6.80528e-09
int_net1_x1_1                              1.8
int_net2_x1_2                                0
int_vctrl_x1_4                               0
net1                                       1.8
net2                                         0
out                                6.80528e-09
vctrl                                        0
vdd                                        1.8
int_vdd_x2_1                               1.8
int_out_x2_2                       6.80528e-09
int_gnd_x2_3                                 0
int_gnd_x3_2                                 0
int_out_x3_1                       6.80528e-09
int_gnd_x3_3                                 0
int_buf1_out_x3_6                  2.60627e-09
int_vdd_x3_5                               1.8
int_vdd_x3_4                               1.8
buf1_out                           2.60627e-09
int_buf1_out_x4_1                  2.60627e-09
int_vdd_x4_5                               1.8
int_vdd_x4_4                               1.8
int_gnd_x4_2                                 0
int_gnd_x4_3                                 0
int_net4_x4_6                       4.9501e-09
net4                                4.9501e-09
int_vdd_x5_5                               1.8
int_net5_x5_6                       4.9501e-09
int_vdd_x5_4                               1.8
int_net4_x5_1                       4.9501e-09
int_gnd_x5_2                                 0
int_gnd_x5_3                                 0
net5                                4.9501e-09
int_net3_x6_6                       4.9501e-09
int_gnd_x6_2                                 0
int_gnd_x6_3                                 0
int_net5_x6_1                       4.9501e-09
int_vdd_x6_5                               1.8
int_vdd_x6_4                               1.8
net3                                4.9501e-09
int_vdd_x7_5                               1.8
int_buf16_out_x7_6                  4.9501e-09
int_vdd_x7_4                               1.8
int_gnd_x7_2                                 0
int_gnd_x7_3                                 0
int_net3_x7_1                       4.9501e-09
buf16_out                           4.9501e-09
v1#branch                                    0
x7:x#branch                                  0
x7:vpwr#branch                    -8.17036e-12
x7:vpb#branch                     -4.15224e-11
x7:vnb#branch                       7.2401e-12
x7:vgnd#branch                     4.24513e-11
x7:a#branch                                  0
x6:x#branch                                  0
x6:vpwr#branch                    -4.08518e-12
x6:vpb#branch                     -2.07605e-11
x6:vnb#branch                      3.62005e-12
x6:vgnd#branch                     2.12257e-11
x6:a#branch                                  0
x5:x#branch                                  0
x5:vpwr#branch                    -2.04259e-12
x5:vpb#branch                     -1.03802e-11
x5:vnb#branch                      1.81003e-12
x5:vgnd#branch                     1.06128e-11
x5:a#branch                                  0
x4:x#branch                                  0
x4:vpwr#branch                     -1.9439e-12
x4:vpb#branch                      -5.1902e-12
x4:vnb#branch                      1.81003e-12
x4:vgnd#branch                     5.32401e-12
x4:a#branch                                  0
x3:x#branch                                  0
x3:vpwr#branch                    -2.01847e-12
x3:vpb#branch                     -1.80998e-12
x3:vnb#branch                      1.81009e-12
x3:vgnd#branch                     2.01837e-12
x3:a#branch                                  0
x2:vss#branch                                0
x2:clk#branch                                0
x2:vdd#branch                      4.88498e-15
vmeas_current_gnd#branch           4.62723e-05
vmeas_current_vdd#branch           4.62723e-05
v2#branch                         -4.62724e-05
x1:vctrl#branch                              0
x1:out#branch                                0
x1:vss#branch                      4.62723e-05
x1:vdd#branch                     -4.62723e-05


No. of Data Rows : 7020

  Measurements for Transient Analysis

tvco_outside_while  =  2.645656e-10 targ=  1.482535e-08 trig=  1.456079e-08
fvco_outside_while  =  3.77978e+09
supply_current_rms_outside_while=   4.77452e-04 from=  1.00000e-08 to=  4.00000e-08
ground_current_rms_outside_while=   4.73556e-04 from=  1.00000e-08 to=  4.00000e-08
vctrl_avg_outside_while=  1.000000e+00 from=  1.000000e-08 to=  2.000500e-08
vhigh_outside_while =  1.924861e+00 at=  1.201500e-08
vlow_outside_while  =  -8.294165e-02 at=  1.189500e-08
peak_to_peak_outside_while=  2.00780e+00
supply_current_rms  =   4.71489e-04 from=  0.00000e+00 to=  7.00000e-08

binary raw file "3-stage_cs-vco_tb_WITH_APPENDWRITE.raw"
Reset re-loads circuit ** sch_path: /home/darunix/gitsandboxes/vco/vco/xschem/3-stage_cs-vco_tb.sch

Circuit: ** sch_path: /home/darunix/gitsandboxes/vco/vco/xschem/3-stage_cs-vco_tb.sch

option SCALE: Scale is set to 1e-06 for instance and model parameters
Doing analysis at TEMP = 27.000000 and TNOM = 27.000000

Warning: v1: no DC value, transient time 0 value used

Initial Transient Solution
--------------------------

Node                                   Voltage
----                                   -------
int_out_x1_3                       6.80528e-09
int_net1_x1_1                              1.8
int_net2_x1_2                                0
int_vctrl_x1_4                               0
net1                                       1.8
net2                                         0
out                                6.80528e-09
vctrl                                        0
vdd                                        1.8
int_vdd_x2_1                               1.8
int_out_x2_2                       6.80528e-09
int_gnd_x2_3                                 0
int_gnd_x3_2                                 0
int_out_x3_1                       6.80528e-09
int_gnd_x3_3                                 0
int_buf1_out_x3_6                  2.60627e-09
int_vdd_x3_5                               1.8
int_vdd_x3_4                               1.8
buf1_out                           2.60627e-09
int_buf1_out_x4_1                  2.60627e-09
int_vdd_x4_5                               1.8
int_vdd_x4_4                               1.8
int_gnd_x4_2                                 0
int_gnd_x4_3                                 0
int_net4_x4_6                       4.9501e-09
net4                                4.9501e-09
int_vdd_x5_5                               1.8
int_net5_x5_6                       4.9501e-09
int_vdd_x5_4                               1.8
int_net4_x5_1                       4.9501e-09
int_gnd_x5_2                                 0
int_gnd_x5_3                                 0
net5                                4.9501e-09
int_net3_x6_6                       4.9501e-09
int_gnd_x6_2                                 0
int_gnd_x6_3                                 0
int_net5_x6_1                       4.9501e-09
int_vdd_x6_5                               1.8
int_vdd_x6_4                               1.8
net3                                4.9501e-09
int_vdd_x7_5                               1.8
int_buf16_out_x7_6                  4.9501e-09
int_vdd_x7_4                               1.8
int_gnd_x7_2                                 0
int_gnd_x7_3                                 0
int_net3_x7_1                       4.9501e-09
buf16_out                           4.9501e-09
v1#branch                                    0
x7:x#branch                                  0
x7:vpwr#branch                    -8.17036e-12
x7:vpb#branch                     -4.15224e-11
x7:vnb#branch                       7.2401e-12
x7:vgnd#branch                     4.24513e-11
x7:a#branch                                  0
x6:x#branch                                  0
x6:vpwr#branch                    -4.08518e-12
x6:vpb#branch                     -2.07605e-11
x6:vnb#branch                      3.62005e-12
x6:vgnd#branch                     2.12257e-11
x6:a#branch                                  0
x5:x#branch                                  0
x5:vpwr#branch                    -2.04259e-12
x5:vpb#branch                     -1.03802e-11
x5:vnb#branch                      1.81003e-12
x5:vgnd#branch                     1.06128e-11
x5:a#branch                                  0
x4:x#branch                                  0
x4:vpwr#branch                     -1.9439e-12
x4:vpb#branch                      -5.1902e-12
x4:vnb#branch                      1.81003e-12
x4:vgnd#branch                     5.32401e-12
x4:a#branch                                  0
x3:x#branch                                  0
x3:vpwr#branch                    -2.01847e-12
x3:vpb#branch                     -1.80998e-12
x3:vnb#branch                      1.81009e-12
x3:vgnd#branch                     2.01837e-12
x3:a#branch                                  0
x2:vss#branch                                0
x2:clk#branch                                0
x2:vdd#branch                      4.88498e-15
vmeas_current_gnd#branch           4.62723e-05
vmeas_current_vdd#branch           4.62723e-05
v2#branch                         -4.62724e-05
x1:vctrl#branch                              0
x1:out#branch                                0
x1:vss#branch                      4.62723e-05
x1:vdd#branch                     -4.62723e-05


No. of Data Rows : 7020

  Measurements for Transient Analysis

tvco_outside_while  =  2.580450e-10 targ=  1.453970e-08 trig=  1.428165e-08
fvco_outside_while  =  3.87529e+09
supply_current_rms_outside_while=   5.14205e-04 from=  1.00000e-08 to=  4.00000e-08
ground_current_rms_outside_while=   5.05654e-04 from=  1.00000e-08 to=  4.00000e-08
vctrl_avg_outside_while=  1.100000e+00 from=  1.000000e-08 to=  2.000500e-08
vhigh_outside_while =  1.923061e+00 at=  1.669500e-08
vlow_outside_while  =  -8.314189e-02 at=  1.890500e-08
peak_to_peak_outside_while=  2.00620e+00
supply_current_rms  =   5.07687e-04 from=  0.00000e+00 to=  7.00000e-08

binary raw file "3-stage_cs-vco_tb_WITH_APPENDWRITE.raw"
Reset re-loads circuit ** sch_path: /home/darunix/gitsandboxes/vco/vco/xschem/3-stage_cs-vco_tb.sch

Circuit: ** sch_path: /home/darunix/gitsandboxes/vco/vco/xschem/3-stage_cs-vco_tb.sch

option SCALE: Scale is set to 1e-06 for instance and model parameters
Doing analysis at TEMP = 27.000000 and TNOM = 27.000000

Warning: v1: no DC value, transient time 0 value used

Initial Transient Solution
--------------------------

Node                                   Voltage
----                                   -------
int_out_x1_3                       6.80528e-09
int_net1_x1_1                              1.8
int_net2_x1_2                                0
int_vctrl_x1_4                               0
net1                                       1.8
net2                                         0
out                                6.80528e-09
vctrl                                        0
vdd                                        1.8
int_vdd_x2_1                               1.8
int_out_x2_2                       6.80528e-09
int_gnd_x2_3                                 0
int_gnd_x3_2                                 0
int_out_x3_1                       6.80528e-09
int_gnd_x3_3                                 0
int_buf1_out_x3_6                  2.60627e-09
int_vdd_x3_5                               1.8
int_vdd_x3_4                               1.8
buf1_out                           2.60627e-09
int_buf1_out_x4_1                  2.60627e-09
int_vdd_x4_5                               1.8
int_vdd_x4_4                               1.8
int_gnd_x4_2                                 0
int_gnd_x4_3                                 0
int_net4_x4_6                       4.9501e-09
net4                                4.9501e-09
int_vdd_x5_5                               1.8
int_net5_x5_6                       4.9501e-09
int_vdd_x5_4                               1.8
int_net4_x5_1                       4.9501e-09
int_gnd_x5_2                                 0
int_gnd_x5_3                                 0
net5                                4.9501e-09
int_net3_x6_6                       4.9501e-09
int_gnd_x6_2                                 0
int_gnd_x6_3                                 0
int_net5_x6_1                       4.9501e-09
int_vdd_x6_5                               1.8
int_vdd_x6_4                               1.8
net3                                4.9501e-09
int_vdd_x7_5                               1.8
int_buf16_out_x7_6                  4.9501e-09
int_vdd_x7_4                               1.8
int_gnd_x7_2                                 0
int_gnd_x7_3                                 0
int_net3_x7_1                       4.9501e-09
buf16_out                           4.9501e-09
v1#branch                                    0
x7:x#branch                                  0
x7:vpwr#branch                    -8.17036e-12
x7:vpb#branch                     -4.15224e-11
x7:vnb#branch                       7.2401e-12
x7:vgnd#branch                     4.24513e-11
x7:a#branch                                  0
x6:x#branch                                  0
x6:vpwr#branch                    -4.08518e-12
x6:vpb#branch                     -2.07605e-11
x6:vnb#branch                      3.62005e-12
x6:vgnd#branch                     2.12257e-11
x6:a#branch                                  0
x5:x#branch                                  0
x5:vpwr#branch                    -2.04259e-12
x5:vpb#branch                     -1.03802e-11
x5:vnb#branch                      1.81003e-12
x5:vgnd#branch                     1.06128e-11
x5:a#branch                                  0
x4:x#branch                                  0
x4:vpwr#branch                     -1.9439e-12
x4:vpb#branch                      -5.1902e-12
x4:vnb#branch                      1.81003e-12
x4:vgnd#branch                     5.32401e-12
x4:a#branch                                  0
x3:x#branch                                  0
x3:vpwr#branch                    -2.01847e-12
x3:vpb#branch                     -1.80998e-12
x3:vnb#branch                      1.81009e-12
x3:vgnd#branch                     2.01837e-12
x3:a#branch                                  0
x2:vss#branch                                0
x2:clk#branch                                0
x2:vdd#branch                      4.88498e-15
vmeas_current_gnd#branch           4.62723e-05
vmeas_current_vdd#branch           4.62723e-05
v2#branch                         -4.62724e-05
x1:vctrl#branch                              0
x1:out#branch                                0
x1:vss#branch                      4.62723e-05
x1:vdd#branch                     -4.62723e-05


No. of Data Rows : 7020

  Measurements for Transient Analysis

tvco_outside_while  =  2.551504e-10 targ=  1.440888e-08 trig=  1.415373e-08
fvco_outside_while  =  3.91926e+09
supply_current_rms_outside_while=   5.28857e-04 from=  1.00000e-08 to=  4.00000e-08
ground_current_rms_outside_while=   5.28067e-04 from=  1.00000e-08 to=  4.00000e-08
vctrl_avg_outside_while=  1.200000e+00 from=  1.000000e-08 to=  2.000500e-08
vhigh_outside_while =  1.921963e+00 at=  1.960500e-08
vlow_outside_while  =  -8.310749e-02 at=  1.157500e-08
peak_to_peak_outside_while=  2.00507e+00
supply_current_rms  =   5.22046e-04 from=  0.00000e+00 to=  7.00000e-08

binary raw file "3-stage_cs-vco_tb_WITH_APPENDWRITE.raw"
Reset re-loads circuit ** sch_path: /home/darunix/gitsandboxes/vco/vco/xschem/3-stage_cs-vco_tb.sch

Circuit: ** sch_path: /home/darunix/gitsandboxes/vco/vco/xschem/3-stage_cs-vco_tb.sch

option SCALE: Scale is set to 1e-06 for instance and model parameters
Doing analysis at TEMP = 27.000000 and TNOM = 27.000000

Warning: v1: no DC value, transient time 0 value used

Initial Transient Solution
--------------------------

Node                                   Voltage
----                                   -------
int_out_x1_3                       6.80528e-09
int_net1_x1_1                              1.8
int_net2_x1_2                                0
int_vctrl_x1_4                               0
net1                                       1.8
net2                                         0
out                                6.80528e-09
vctrl                                        0
vdd                                        1.8
int_vdd_x2_1                               1.8
int_out_x2_2                       6.80528e-09
int_gnd_x2_3                                 0
int_gnd_x3_2                                 0
int_out_x3_1                       6.80528e-09
int_gnd_x3_3                                 0
int_buf1_out_x3_6                  2.60627e-09
int_vdd_x3_5                               1.8
int_vdd_x3_4                               1.8
buf1_out                           2.60627e-09
int_buf1_out_x4_1                  2.60627e-09
int_vdd_x4_5                               1.8
int_vdd_x4_4                               1.8
int_gnd_x4_2                                 0
int_gnd_x4_3                                 0
int_net4_x4_6                       4.9501e-09
net4                                4.9501e-09
int_vdd_x5_5                               1.8
int_net5_x5_6                       4.9501e-09
int_vdd_x5_4                               1.8
int_net4_x5_1                       4.9501e-09
int_gnd_x5_2                                 0
int_gnd_x5_3                                 0
net5                                4.9501e-09
int_net3_x6_6                       4.9501e-09
int_gnd_x6_2                                 0
int_gnd_x6_3                                 0
int_net5_x6_1                       4.9501e-09
int_vdd_x6_5                               1.8
int_vdd_x6_4                               1.8
net3                                4.9501e-09
int_vdd_x7_5                               1.8
int_buf16_out_x7_6                  4.9501e-09
int_vdd_x7_4                               1.8
int_gnd_x7_2                                 0
int_gnd_x7_3                                 0
int_net3_x7_1                       4.9501e-09
buf16_out                           4.9501e-09
v1#branch                                    0
x7:x#branch                                  0
x7:vpwr#branch                    -8.17036e-12
x7:vpb#branch                     -4.15224e-11
x7:vnb#branch                       7.2401e-12
x7:vgnd#branch                     4.24513e-11
x7:a#branch                                  0
x6:x#branch                                  0
x6:vpwr#branch                    -4.08518e-12
x6:vpb#branch                     -2.07605e-11
x6:vnb#branch                      3.62005e-12
x6:vgnd#branch                     2.12257e-11
x6:a#branch                                  0
x5:x#branch                                  0
x5:vpwr#branch                    -2.04259e-12
x5:vpb#branch                     -1.03802e-11
x5:vnb#branch                      1.81003e-12
x5:vgnd#branch                     1.06128e-11
x5:a#branch                                  0
x4:x#branch                                  0
x4:vpwr#branch                     -1.9439e-12
x4:vpb#branch                      -5.1902e-12
x4:vnb#branch                      1.81003e-12
x4:vgnd#branch                     5.32401e-12
x4:a#branch                                  0
x3:x#branch                                  0
x3:vpwr#branch                    -2.01847e-12
x3:vpb#branch                     -1.80998e-12
x3:vnb#branch                      1.81009e-12
x3:vgnd#branch                     2.01837e-12
x3:a#branch                                  0
x2:vss#branch                                0
x2:clk#branch                                0
x2:vdd#branch                      4.88498e-15
vmeas_current_gnd#branch           4.62723e-05
vmeas_current_vdd#branch           4.62723e-05
v2#branch                         -4.62724e-05
x1:vctrl#branch                              0
x1:out#branch                                0
x1:vss#branch                      4.62723e-05
x1:vdd#branch                     -4.62723e-05


No. of Data Rows : 7020

  Measurements for Transient Analysis

tvco_outside_while  =  2.543894e-10 targ=  1.434598e-08 trig=  1.409159e-08
fvco_outside_while  =  3.93098e+09
supply_current_rms_outside_while=   5.40069e-04 from=  1.00000e-08 to=  4.00000e-08
ground_current_rms_outside_while=   5.40066e-04 from=  1.00000e-08 to=  4.00000e-08
vctrl_avg_outside_while=  1.300000e+00 from=  1.000000e-08 to=  2.000500e-08
vhigh_outside_while =  1.921515e+00 at=  1.646500e-08
vlow_outside_while  =  -8.303452e-02 at=  1.330500e-08
peak_to_peak_outside_while=  2.00455e+00
supply_current_rms  =   5.33387e-04 from=  0.00000e+00 to=  7.00000e-08

binary raw file "3-stage_cs-vco_tb_WITH_APPENDWRITE.raw"
Reset re-loads circuit ** sch_path: /home/darunix/gitsandboxes/vco/vco/xschem/3-stage_cs-vco_tb.sch

Circuit: ** sch_path: /home/darunix/gitsandboxes/vco/vco/xschem/3-stage_cs-vco_tb.sch

option SCALE: Scale is set to 1e-06 for instance and model parameters
Doing analysis at TEMP = 27.000000 and TNOM = 27.000000

Warning: v1: no DC value, transient time 0 value used

Initial Transient Solution
--------------------------

Node                                   Voltage
----                                   -------
int_out_x1_3                       6.80528e-09
int_net1_x1_1                              1.8
int_net2_x1_2                                0
int_vctrl_x1_4                               0
net1                                       1.8
net2                                         0
out                                6.80528e-09
vctrl                                        0
vdd                                        1.8
int_vdd_x2_1                               1.8
int_out_x2_2                       6.80528e-09
int_gnd_x2_3                                 0
int_gnd_x3_2                                 0
int_out_x3_1                       6.80528e-09
int_gnd_x3_3                                 0
int_buf1_out_x3_6                  2.60627e-09
int_vdd_x3_5                               1.8
int_vdd_x3_4                               1.8
buf1_out                           2.60627e-09
int_buf1_out_x4_1                  2.60627e-09
int_vdd_x4_5                               1.8
int_vdd_x4_4                               1.8
int_gnd_x4_2                                 0
int_gnd_x4_3                                 0
int_net4_x4_6                       4.9501e-09
net4                                4.9501e-09
int_vdd_x5_5                               1.8
int_net5_x5_6                       4.9501e-09
int_vdd_x5_4                               1.8
int_net4_x5_1                       4.9501e-09
int_gnd_x5_2                                 0
int_gnd_x5_3                                 0
net5                                4.9501e-09
int_net3_x6_6                       4.9501e-09
int_gnd_x6_2                                 0
int_gnd_x6_3                                 0
int_net5_x6_1                       4.9501e-09
int_vdd_x6_5                               1.8
int_vdd_x6_4                               1.8
net3                                4.9501e-09
int_vdd_x7_5                               1.8
int_buf16_out_x7_6                  4.9501e-09
int_vdd_x7_4                               1.8
int_gnd_x7_2                                 0
int_gnd_x7_3                                 0
int_net3_x7_1                       4.9501e-09
[...]
x7:vnb#branch                       7.2401e-12
x7:vgnd#branch                     4.24513e-11
x7:a#branch                                  0
x6:x#branch                                  0
x6:vpwr#branch                    -4.08518e-12
x6:vpb#branch                     -2.07605e-11
x6:vnb#branch                      3.62005e-12
x6:vgnd#branch                     2.12257e-11
x6:a#branch                                  0
x5:x#branch                                  0
x5:vpwr#branch                    -2.04259e-12
x5:vpb#branch                     -1.03802e-11
x5:vnb#branch                      1.81003e-12
x5:vgnd#branch                     1.06128e-11
x5:a#branch                                  0
x4:x#branch                                  0
x4:vpwr#branch                     -1.9439e-12
x4:vpb#branch                      -5.1902e-12
x4:vnb#branch                      1.81003e-12
x4:vgnd#branch                     5.32401e-12
x4:a#branch                                  0
x3:x#branch                                  0
x3:vpwr#branch                    -2.01847e-12
x3:vpb#branch                     -1.80998e-12
x3:vnb#branch                      1.81009e-12
x3:vgnd#branch                     2.01837e-12
x3:a#branch                                  0
x2:vss#branch                                0
x2:clk#branch                                0
x2:vdd#branch                      4.88498e-15
vmeas_current_gnd#branch           4.62723e-05
vmeas_current_vdd#branch           4.62723e-05
v2#branch                         -4.62724e-05
x1:vctrl#branch                              0
x1:out#branch                                0
x1:vss#branch                      4.62723e-05
x1:vdd#branch                     -4.62723e-05


No. of Data Rows : 7020

  Measurements for Transient Analysis

tvco_outside_while  =  2.528223e-10 targ=  1.428095e-08 trig=  1.402813e-08
fvco_outside_while  =  3.95535e+09
supply_current_rms_outside_while=   5.51524e-04 from=  1.00000e-08 to=  4.00000e-08
ground_current_rms_outside_while=   5.51855e-04 from=  1.00000e-08 to=  4.00000e-08
vctrl_avg_outside_while=  1.500000e+00 from=  1.000000e-08 to=  2.000500e-08
vhigh_outside_while =  1.921123e+00 at=  1.967500e-08
vlow_outside_while  =  -8.289089e-02 at=  1.501500e-08
peak_to_peak_outside_while=  2.00401e+00
supply_current_rms  =   5.45116e-04 from=  0.00000e+00 to=  7.00000e-08

binary raw file "3-stage_cs-vco_tb_WITH_APPENDWRITE.raw"
Reset re-loads circuit ** sch_path: /home/darunix/gitsandboxes/vco/vco/xschem/3-stage_cs-vco_tb.sch

Circuit: ** sch_path: /home/darunix/gitsandboxes/vco/vco/xschem/3-stage_cs-vco_tb.sch

option SCALE: Scale is set to 1e-06 for instance and model parameters
Doing analysis at TEMP = 27.000000 and TNOM = 27.000000

Warning: v1: no DC value, transient time 0 value used

Initial Transient Solution
--------------------------

Node                                   Voltage
----                                   -------
int_out_x1_3                       6.80528e-09
int_net1_x1_1                              1.8
int_net2_x1_2                                0
int_vctrl_x1_4                               0
net1                                       1.8
net2                                         0
out                                6.80528e-09
vctrl                                        0
vdd                                        1.8
int_vdd_x2_1                               1.8
int_out_x2_2                       6.80528e-09
int_gnd_x2_3                                 0
int_gnd_x3_2                                 0
int_out_x3_1                       6.80528e-09
int_gnd_x3_3                                 0
int_buf1_out_x3_6                  2.60627e-09
int_vdd_x3_5                               1.8
int_vdd_x3_4                               1.8
buf1_out                           2.60627e-09
int_buf1_out_x4_1                  2.60627e-09
int_vdd_x4_5                               1.8
int_vdd_x4_4                               1.8
int_gnd_x4_2                                 0
int_gnd_x4_3                                 0
int_net4_x4_6                       4.9501e-09
net4                                4.9501e-09
int_vdd_x5_5                               1.8
int_net5_x5_6                       4.9501e-09
int_vdd_x5_4                               1.8
int_net4_x5_1                       4.9501e-09
int_gnd_x5_2                                 0
int_gnd_x5_3                                 0
net5                                4.9501e-09
int_net3_x6_6                       4.9501e-09
int_gnd_x6_2                                 0
int_gnd_x6_3                                 0
int_net5_x6_1                       4.9501e-09
int_vdd_x6_5                               1.8
int_vdd_x6_4                               1.8
net3                                4.9501e-09
int_vdd_x7_5                               1.8
int_buf16_out_x7_6                  4.9501e-09
int_vdd_x7_4                               1.8
int_gnd_x7_2                                 0
int_gnd_x7_3                                 0
int_net3_x7_1                       4.9501e-09
buf16_out                           4.9501e-09
v1#branch                                    0
x7:x#branch                                  0
x7:vpwr#branch                    -8.17036e-12
x7:vpb#branch                     -4.15224e-11
x7:vnb#branch                       7.2401e-12
x7:vgnd#branch                     4.24513e-11
x7:a#branch                                  0
x6:x#branch                                  0
x6:vpwr#branch                    -4.08518e-12
x6:vpb#branch                     -2.07605e-11
x6:vnb#branch                      3.62005e-12
x6:vgnd#branch                     2.12257e-11
x6:a#branch                                  0
x5:x#branch                                  0
x5:vpwr#branch                    -2.04259e-12
x5:vpb#branch                     -1.03802e-11
x5:vnb#branch                      1.81003e-12
x5:vgnd#branch                     1.06128e-11
x5:a#branch                                  0
x4:x#branch                                  0
x4:vpwr#branch                     -1.9439e-12
x4:vpb#branch                      -5.1902e-12
x4:vnb#branch                      1.81003e-12
x4:vgnd#branch                     5.32401e-12
x4:a#branch                                  0
x3:x#branch                                  0
x3:vpwr#branch                    -2.01847e-12
x3:vpb#branch                     -1.80998e-12
x3:vnb#branch                      1.81009e-12
x3:vgnd#branch                     2.01837e-12
x3:a#branch                                  0
x2:vss#branch                                0
x2:clk#branch                                0
x2:vdd#branch                      4.88498e-15
vmeas_current_gnd#branch           4.62723e-05
vmeas_current_vdd#branch           4.62723e-05
v2#branch                         -4.62724e-05
x1:vctrl#branch                              0
x1:out#branch                                0
x1:vss#branch                      4.62723e-05
x1:vdd#branch                     -4.62723e-05


No. of Data Rows : 7020

  Measurements for Transient Analysis

tvco_outside_while  =  2.525764e-10 targ=  1.426188e-08 trig=  1.400930e-08
fvco_outside_while  =  3.95920e+09
supply_current_rms_outside_while=   5.55120e-04 from=  1.00000e-08 to=  4.00000e-08
ground_current_rms_outside_while=   5.55420e-04 from=  1.00000e-08 to=  4.00000e-08
vctrl_avg_outside_while=  1.600000e+00 from=  1.000000e-08 to=  2.000500e-08
vhigh_outside_while =  1.921023e+00 at=  1.308500e-08
vlow_outside_while  =  -8.283867e-02 at=  1.398500e-08
peak_to_peak_outside_while=  2.00386e+00
supply_current_rms  =   5.48506e-04 from=  0.00000e+00 to=  7.00000e-08

binary raw file "3-stage_cs-vco_tb_WITH_APPENDWRITE.raw"
Reset re-loads circuit ** sch_path: /home/darunix/gitsandboxes/vco/vco/xschem/3-stage_cs-vco_tb.sch

Circuit: ** sch_path: /home/darunix/gitsandboxes/vco/vco/xschem/3-stage_cs-vco_tb.sch

option SCALE: Scale is set to 1e-06 for instance and model parameters
Doing analysis at TEMP = 27.000000 and TNOM = 27.000000

Warning: v1: no DC value, transient time 0 value used

Initial Transient Solution
--------------------------

Node                                   Voltage
----                                   -------
int_out_x1_3                       6.80528e-09
int_net1_x1_1                              1.8
int_net2_x1_2                                0
int_vctrl_x1_4                               0
net1                                       1.8
net2                                         0
out                                6.80528e-09
vctrl                                        0
vdd                                        1.8
int_vdd_x2_1                               1.8
int_out_x2_2                       6.80528e-09
int_gnd_x2_3                                 0
int_gnd_x3_2                                 0
int_out_x3_1                       6.80528e-09
int_gnd_x3_3                                 0
int_buf1_out_x3_6                  2.60627e-09
int_vdd_x3_5                               1.8
int_vdd_x3_4                               1.8
buf1_out                           2.60627e-09
int_buf1_out_x4_1                  2.60627e-09
int_vdd_x4_5                               1.8
int_vdd_x4_4                               1.8
int_gnd_x4_2                                 0
int_gnd_x4_3                                 0
int_net4_x4_6                       4.9501e-09
net4                                4.9501e-09
int_vdd_x5_5                               1.8
int_net5_x5_6                       4.9501e-09
int_vdd_x5_4                               1.8
int_net4_x5_1                       4.9501e-09
int_gnd_x5_2                                 0
int_gnd_x5_3                                 0
net5                                4.9501e-09
int_net3_x6_6                       4.9501e-09
int_gnd_x6_2                                 0
int_gnd_x6_3                                 0
int_net5_x6_1                       4.9501e-09
int_vdd_x6_5                               1.8
int_vdd_x6_4                               1.8
net3                                4.9501e-09
int_vdd_x7_5                               1.8
int_buf16_out_x7_6                  4.9501e-09
int_vdd_x7_4                               1.8
int_gnd_x7_2                                 0
int_gnd_x7_3                                 0
int_net3_x7_1                       4.9501e-09
buf16_out                           4.9501e-09
v1#branch                                    0
x7:x#branch                                  0
x7:vpwr#branch                    -8.17036e-12
x7:vpb#branch                     -4.15224e-11
x7:vnb#branch                       7.2401e-12
x7:vgnd#branch                     4.24513e-11
x7:a#branch                                  0
x6:x#branch                                  0
x6:vpwr#branch                    -4.08518e-12
x6:vpb#branch                     -2.07605e-11
x6:vnb#branch                      3.62005e-12
x6:vgnd#branch                     2.12257e-11
x6:a#branch                                  0
x5:x#branch                                  0
x5:vpwr#branch                    -2.04259e-12
x5:vpb#branch                     -1.03802e-11
x5:vnb#branch                      1.81003e-12
x5:vgnd#branch                     1.06128e-11
x5:a#branch                                  0
x4:x#branch                                  0
x4:vpwr#branch                     -1.9439e-12
x4:vpb#branch                      -5.1902e-12
x4:vnb#branch                      1.81003e-12
x4:vgnd#branch                     5.32401e-12
x4:a#branch                                  0
x3:x#branch                                  0
x3:vpwr#branch                    -2.01847e-12
x3:vpb#branch                     -1.80998e-12
x3:vnb#branch                      1.81009e-12
x3:vgnd#branch                     2.01837e-12
x3:a#branch                                  0
x2:vss#branch                                0
x2:clk#branch                                0
x2:vdd#branch                      4.88498e-15
vmeas_current_gnd#branch           4.62723e-05
vmeas_current_vdd#branch           4.62723e-05
v2#branch                         -4.62724e-05
x1:vctrl#branch                              0
x1:out#branch                                0
x1:vss#branch                      4.62723e-05
x1:vdd#branch                     -4.62723e-05


No. of Data Rows : 7020

  Measurements for Transient Analysis

tvco_outside_while  =  2.517866e-10 targ=  1.424729e-08 trig=  1.399550e-08
fvco_outside_while  =  3.97162e+09
supply_current_rms_outside_while=   5.58213e-04 from=  1.00000e-08 to=  4.00000e-08
ground_current_rms_outside_while=   5.58070e-04 from=  1.00000e-08 to=  4.00000e-08
vctrl_avg_outside_while=  1.700000e+00 from=  1.000000e-08 to=  2.000500e-08
vhigh_outside_while =  1.920948e+00 at=  1.584500e-08
vlow_outside_while  =  -8.280451e-02 at=  1.447500e-08
peak_to_peak_outside_while=  2.00375e+00
supply_current_rms  =   5.51428e-04 from=  0.00000e+00 to=  7.00000e-08

binary raw file "3-stage_cs-vco_tb_WITH_APPENDWRITE.raw"
Reset re-loads circuit ** sch_path: /home/darunix/gitsandboxes/vco/vco/xschem/3-stage_cs-vco_tb.sch

Circuit: ** sch_path: /home/darunix/gitsandboxes/vco/vco/xschem/3-stage_cs-vco_tb.sch

option SCALE: Scale is set to 1e-06 for instance and model parameters
Doing analysis at TEMP = 27.000000 and TNOM = 27.000000

Warning: v1: no DC value, transient time 0 value used

Initial Transient Solution
--------------------------

Node                                   Voltage
----                                   -------
int_out_x1_3                       6.80528e-09
int_net1_x1_1                              1.8
int_net2_x1_2                                0
int_vctrl_x1_4                               0
net1                                       1.8
net2                                         0
out                                6.80528e-09
vctrl                                        0
vdd                                        1.8
int_vdd_x2_1                               1.8
int_out_x2_2                       6.80528e-09
int_gnd_x2_3                                 0
int_gnd_x3_2                                 0
int_out_x3_1                       6.80528e-09
int_gnd_x3_3                                 0
int_buf1_out_x3_6                  2.60627e-09
int_vdd_x3_5                               1.8
int_vdd_x3_4                               1.8
buf1_out                           2.60627e-09
int_buf1_out_x4_1                  2.60627e-09
int_vdd_x4_5                               1.8
int_vdd_x4_4                               1.8
int_gnd_x4_2                                 0
int_gnd_x4_3                                 0
int_net4_x4_6                       4.9501e-09
net4                                4.9501e-09
int_vdd_x5_5                               1.8
int_net5_x5_6                       4.9501e-09
int_vdd_x5_4                               1.8
int_net4_x5_1                       4.9501e-09
int_gnd_x5_2                                 0
int_gnd_x5_3                                 0
net5                                4.9501e-09
int_net3_x6_6                       4.9501e-09
int_gnd_x6_2                                 0
int_gnd_x6_3                                 0
int_net5_x6_1                       4.9501e-09
int_vdd_x6_5                               1.8
int_vdd_x6_4                               1.8
net3                                4.9501e-09
int_vdd_x7_5                               1.8
int_buf16_out_x7_6                  4.9501e-09
int_vdd_x7_4                               1.8
int_gnd_x7_2                                 0
int_gnd_x7_3                                 0
int_net3_x7_1                       4.9501e-09
buf16_out                           4.9501e-09
v1#branch                                    0
x7:x#branch                                  0
x7:vpwr#branch                    -8.17036e-12
x7:vpb#branch                     -4.15224e-11
x7:vnb#branch                       7.2401e-12
x7:vgnd#branch                     4.24513e-11
x7:a#branch                                  0
x6:x#branch                                  0
x6:vpwr#branch                    -4.08518e-12
x6:vpb#branch                     -2.07605e-11
x6:vnb#branch                      3.62005e-12
x6:vgnd#branch                     2.12257e-11
x6:a#branch                                  0
x5:x#branch                                  0
x5:vpwr#branch                    -2.04259e-12
x5:vpb#branch                     -1.03802e-11
x5:vnb#branch                      1.81003e-12
x5:vgnd#branch                     1.06128e-11
x5:a#branch                                  0
x4:x#branch                                  0
x4:vpwr#branch                     -1.9439e-12
x4:vpb#branch                      -5.1902e-12
x4:vnb#branch                      1.81003e-12
x4:vgnd#branch                     5.32401e-12
x4:a#branch                                  0
x3:x#branch                                  0
x3:vpwr#branch                    -2.01847e-12
x3:vpb#branch                     -1.80998e-12
x3:vnb#branch                      1.81009e-12
x3:vgnd#branch                     2.01837e-12
x3:a#branch                                  0
x2:vss#branch                                0
x2:clk#branch                                0
x2:vdd#branch                      4.88498e-15
vmeas_current_gnd#branch           4.62723e-05
vmeas_current_vdd#branch           4.62723e-05
v2#branch                         -4.62724e-05
x1:vctrl#branch                              0
x1:out#branch                                0
x1:vss#branch                      4.62723e-05
x1:vdd#branch                     -4.62723e-05


No. of Data Rows : 7020

  Measurements for Transient Analysis

tvco_outside_while  =  2.517535e-10 targ=  1.423614e-08 trig=  1.398439e-08
fvco_outside_while  =  3.97214e+09
supply_current_rms_outside_while=   5.60065e-04 from=  1.00000e-08 to=  4.00000e-08
ground_current_rms_outside_while=   5.59951e-04 from=  1.00000e-08 to=  4.00000e-08
vctrl_avg_outside_while=  1.800000e+00 from=  1.000000e-08 to=  2.000500e-08
vhigh_outside_while =  1.920877e+00 at=  1.356500e-08
vlow_outside_while  =  -8.274649e-02 at=  1.068500e-08
peak_to_peak_outside_while=  2.00362e+00
supply_current_rms  =   5.53288e-04 from=  0.00000e+00 to=  7.00000e-08

binary raw file "3-stage_cs-vco_tb_WITH_APPENDWRITE.raw"
Doing analysis at TEMP = 27.000000 and TNOM = 27.000000

Warning: v1: no DC value, transient time 0 value used

  Measurements for Transient Analysis

tvco_outside_while  =  2.517535e-10 targ=  1.423614e-08 trig=  1.398439e-08
Original line no.: 0, new internal line no.: 12503:
insertnumber: fails.
  s = ".meas tran fvco_outside_while param=    3.972140146074597e+09   " u="  3.972140146074597e+09  " id=0
fvco_outside_while  =  3.97214e+09
supply_current_rms_outside_while=   5.60065e-04 from=  1.00000e-08 to=  4.00000e-08
ground_current_rms_outside_while=   5.59951e-04 from=  1.00000e-08 to=  4.00000e-08
vctrl_avg_outside_while=  1.800000e+00 from=  1.000000e-08 to=  2.000500e-08
vhigh_outside_while =  1.920877e+00 at=  1.356500e-08
vlow_outside_while  =  -8.274649e-02 at=  1.068500e-08
Original line no.: 0, new internal line no.: 12509:
insertnumber: fails.
  s = ".meas tran peak_to_peak_outside_while param=    2.003623330469933e+00   " u="  2.003623330469933e+00  " id=0
peak_to_peak_outside_while=  2.00362e+00
supply_current_rms  =   5.53288e-04 from=  0.00000e+00 to=  7.00000e-08


Total analysis time (seconds) = 11.1922

Total CPU time (seconds) = 226.012 

Total DRAM available = 7955.125 MB.
DRAM currently available = 1973.199 MB.
Maximum ngspice program size =  684.738 MB.
Current ngspice program size =  665.977 MB.

Shared ngspice pages =    8.957 MB.
Text (code) pages =    7.879 MB.
Stack = 0 bytes.
Library pages =  657.258 MB.

