
Compatibility modes selected: hs a

Warning: m=xx on .subckt line will override multiplier m hierarchy!


Circuit: ** sch_path: /home/darunix/gitsandboxes/vco/vco/xschem/3-stage_cs-vco_tb.sch

option SCALE: Scale is set to 1e-06 for instance and model parameters
Reset re-loads circuit ** sch_path: /home/darunix/gitsandboxes/vco/vco/xschem/3-stage_cs-vco_tb.sch

Circuit: ** sch_path: /home/darunix/gitsandboxes/vco/vco/xschem/3-stage_cs-vco_tb.sch

option SCALE: Scale is set to 1e-06 for instance and model parameters
Reset re-loads circuit ** sch_path: /home/darunix/gitsandboxes/vco/vco/xschem/3-stage_cs-vco_tb.sch

Circuit: ** sch_path: /home/darunix/gitsandboxes/vco/vco/xschem/3-stage_cs-vco_tb.sch

option SCALE: Scale is set to 1e-06 for instance and model parameters
Doing analysis at TEMP = 27.000000 and TNOM = 27.000000

Warning: v1: no DC value, transient time 0 value used

Initial Transient Solution
--------------------------

Node                                   Voltage
----                                   -------
x1.net7                                    1.8
x1.net6                            1.74924e-06
net1                                       1.8
net2                                         0
out                                6.80528e-09
x1.vgp                                 1.67848
vctrl                                        0
x1.net8                               0.870271
x1.ng3                             9.63187e-09
x1.ng0                             9.63187e-09
x1.vco_switch_n_v2_0/selb                  1.8
sel0                                         0
x1.ng1                             9.63187e-09
x1.vco_switch_n_v2_1/selb                  1.8
sel1                                         0
x1.ng2                             9.63187e-09
x1.vco_switch_n_v2_2/selb                  1.8
sel2                                         0
x1.vco_switch_n_v2_3/selb                  1.8
sel3                                         0
x1.net3                               0.870271
x1.net5                                1.77531
x1.net2                                1.76679
x1.net4                               0.698728
x1.pg3                                     1.8
x1.pg0                                     1.8
x1.vco_switch_p_0/selb                     1.8
x1.pg1                                     1.8
x1.pg2                                     1.8
x1.vco_switch_p_2/selb                     1.8
x1.vco_switch_p_1/selb                     1.8
x1.vco_switch_p_3/selb                     1.8
vdd                                        1.8
buf1_out                           2.60627e-09
net4                                4.9501e-09
net5                                4.9501e-09
net3                                4.9501e-09
buf16_out                           4.9501e-09
v1#branch                          1.76416e-11
vmeas_current_gnd#branch           2.14689e-05
vmeas_current_vdd#branch           2.14689e-05
v2#branch                          -2.1469e-05
vsel3#branch                                 0
vsel2#branch                                 0
vsel1#branch                                 0
vsel0#branch                                 0


No. of Data Rows : 7020

  Measurements for Transient Analysis


Error: measure  tvco_outside_while  (TRIG) : out of interval
 .meas tran tvco_outside_while trig v(out) val=0.5*1.8 rise=50 targ v(out) val=0.5*1.8 rise=51 failed!

Original line no.: 0, new internal line no.: 12460:
Undefined number [tvco_outside_while]
Original line no.: 0, new internal line no.: 12460:
Cannot compute substitute
fvco_outside_while  =   failed
supply_current_rms_outside_while=   1.45044e-05 from=  1.00000e-08 to=  4.00000e-08
ground_current_rms_outside_while=   3.74357e-05 from=  1.00000e-08 to=  4.00000e-08
vctrl_avg_outside_while=  0.000000e+00 from=  1.000000e-08 to=  2.000500e-08
vhigh_outside_while =  3.282756e-06 at=  1.046500e-08
vlow_outside_while  =  -3.268921e-06 at=  1.045500e-08
peak_to_peak_outside_while=  6.55168e-06
supply_current_rms  =   4.93030e-05 from=  0.00000e+00 to=  7.00000e-08

binary raw file "3-stage_cs-vco_tb_WITH_APPENDWRITE.raw"
Reset re-loads circuit ** sch_path: /home/darunix/gitsandboxes/vco/vco/xschem/3-stage_cs-vco_tb.sch

Circuit: ** sch_path: /home/darunix/gitsandboxes/vco/vco/xschem/3-stage_cs-vco_tb.sch

option SCALE: Scale is set to 1e-06 for instance and model parameters
Doing analysis at TEMP = 27.000000 and TNOM = 27.000000

Warning: v1: no DC value, transient time 0 value used

Initial Transient Solution
--------------------------

Node                                   Voltage
----                                   -------
x1.net7                                    1.8
x1.net6                            1.74924e-06
net1                                       1.8
net2                                         0
out                                6.80528e-09
x1.vgp                                 1.67848
vctrl                                        0
x1.net8                               0.870271
x1.ng3                             9.63187e-09
x1.ng0                             9.63187e-09
x1.vco_switch_n_v2_0/selb                  1.8
sel0                                         0
x1.ng1                             9.63187e-09
x1.vco_switch_n_v2_1/selb                  1.8
sel1                                         0
x1.ng2                             9.63187e-09
x1.vco_switch_n_v2_2/selb                  1.8
sel2                                         0
x1.vco_switch_n_v2_3/selb                  1.8
sel3                                         0
x1.net3                               0.870271
x1.net5                                1.77531
x1.net2                                1.76679
x1.net4                               0.698728
x1.pg3                                     1.8
x1.pg0                                     1.8
x1.vco_switch_p_0/selb                     1.8
x1.pg1                                     1.8
x1.pg2                                     1.8
x1.vco_switch_p_2/selb                     1.8
x1.vco_switch_p_1/selb                     1.8
x1.vco_switch_p_3/selb                     1.8
vdd                                        1.8
buf1_out                           2.60627e-09
net4                                4.9501e-09
net5                                4.9501e-09
net3                                4.9501e-09
buf16_out                           4.9501e-09
v1#branch                          1.76416e-11
vmeas_current_gnd#branch           2.14689e-05
vmeas_current_vdd#branch           2.14689e-05
v2#branch                          -2.1469e-05
vsel3#branch                                 0
vsel2#branch                                 0
vsel1#branch                                 0
vsel0#branch                                 0


No. of Data Rows : 7020

  Measurements for Transient Analysis


Error: measure  tvco_outside_while  (TRIG) : out of interval
 .meas tran tvco_outside_while trig v(out) val=0.5*1.8 rise=50 targ v(out) val=0.5*1.8 rise=51 failed!

Original line no.: 0, new internal line no.: 12460:
Undefined number [tvco_outside_while]
Original line no.: 0, new internal line no.: 12460:
Cannot compute substitute
fvco_outside_while  =   failed
supply_current_rms_outside_while=   5.79493e-05 from=  1.00000e-08 to=  4.00000e-08
ground_current_rms_outside_while=   1.79898e-05 from=  1.00000e-08 to=  4.00000e-08
vctrl_avg_outside_while=  1.000000e-01 from=  1.000000e-08 to=  2.000500e-08
vhigh_outside_while =  2.120739e-06 at=  1.073500e-08
vlow_outside_while  =  -2.106574e-06 at=  1.074500e-08
peak_to_peak_outside_while=  4.22731e-06
supply_current_rms  =   7.19837e-05 from=  0.00000e+00 to=  7.00000e-08

binary raw file "3-stage_cs-vco_tb_WITH_APPENDWRITE.raw"
Reset re-loads circuit ** sch_path: /home/darunix/gitsandboxes/vco/vco/xschem/3-stage_cs-vco_tb.sch

Circuit: ** sch_path: /home/darunix/gitsandboxes/vco/vco/xschem/3-stage_cs-vco_tb.sch

option SCALE: Scale is set to 1e-06 for instance and model parameters
Doing analysis at TEMP = 27.000000 and TNOM = 27.000000

Warning: v1: no DC value, transient time 0 value used

Initial Transient Solution
--------------------------

Node                                   Voltage
----                                   -------
x1.net7                                    1.8
x1.net6                            1.74924e-06
net1                                       1.8
net2                                         0
out                                6.80528e-09
x1.vgp                                 1.67848
vctrl                                        0
x1.net8                               0.870271
x1.ng3                             9.63187e-09
x1.ng0                             9.63187e-09
x1.vco_switch_n_v2_0/selb                  1.8
sel0                                         0
x1.ng1                             9.63187e-09
x1.vco_switch_n_v2_1/selb                  1.8
sel1                                         0
x1.ng2                             9.63187e-09
x1.vco_switch_n_v2_2/selb                  1.8
sel2                                         0
x1.vco_switch_n_v2_3/selb                  1.8
sel3                                         0
x1.net3                               0.870271
x1.net5                                1.77531
x1.net2                                1.76679
x1.net4                               0.698728
x1.pg3                                     1.8
x1.pg0                                     1.8
x1.vco_switch_p_0/selb                     1.8
x1.pg1                                     1.8
x1.pg2                                     1.8
x1.vco_switch_p_2/selb                     1.8
x1.vco_switch_p_1/selb                     1.8
x1.vco_switch_p_3/selb                     1.8
vdd                                        1.8
buf1_out                           2.60627e-09
net4                                4.9501e-09
net5                                4.9501e-09
net3                                4.9501e-09
buf16_out                           4.9501e-09
v1#branch                          1.76416e-11
vmeas_current_gnd#branch           2.14689e-05
vmeas_current_vdd#branch           2.14689e-05
v2#branch                          -2.1469e-05
vsel3#branch                                 0
vsel2#branch                                 0
vsel1#branch                                 0
vsel0#branch                                 0


No. of Data Rows : 7020

  Measurements for Transient Analysis


Error: measure  tvco_outside_while  (TRIG) : out of interval
 .meas tran tvco_outside_while trig v(out) val=0.5*1.8 rise=50 targ v(out) val=0.5*1.8 rise=51 failed!

Original line no.: 0, new internal line no.: 12460:
Undefined number [tvco_outside_while]
Original line no.: 0, new internal line no.: 12460:
Cannot compute substitute
fvco_outside_while  =   failed
supply_current_rms_outside_while=   6.00159e-05 from=  1.00000e-08 to=  4.00000e-08
ground_current_rms_outside_while=   1.51033e-05 from=  1.00000e-08 to=  4.00000e-08
vctrl_avg_outside_while=  2.000000e-01 from=  1.000000e-08 to=  2.000500e-08
vhigh_outside_while =  3.305597e-06 at=  1.069500e-08
vlow_outside_while  =  -3.291331e-06 at=  1.068500e-08
peak_to_peak_outside_while=  6.59693e-06
supply_current_rms  =   7.32293e-05 from=  0.00000e+00 to=  7.00000e-08

binary raw file "3-stage_cs-vco_tb_WITH_APPENDWRITE.raw"
Reset re-loads circuit ** sch_path: /home/darunix/gitsandboxes/vco/vco/xschem/3-stage_cs-vco_tb.sch

Circuit: ** sch_path: /home/darunix/gitsandboxes/vco/vco/xschem/3-stage_cs-vco_tb.sch

option SCALE: Scale is set to 1e-06 for instance and model parameters
Doing analysis at TEMP = 27.000000 and TNOM = 27.000000

Warning: v1: no DC value, transient time 0 value used

Initial Transient Solution
--------------------------

Node                                   Voltage
----                                   -------
x1.net7                                    1.8
x1.net6                            1.74924e-06
net1                                       1.8
net2                                         0
out                                6.80528e-09
x1.vgp                                 1.67848
vctrl                                        0
x1.net8                               0.870271
x1.ng3                             9.63187e-09
x1.ng0                             9.63187e-09
x1.vco_switch_n_v2_0/selb                  1.8
sel0                                         0
x1.ng1                             9.63187e-09
x1.vco_switch_n_v2_1/selb                  1.8
sel1                                         0
x1.ng2                             9.63187e-09
x1.vco_switch_n_v2_2/selb                  1.8
sel2                                         0
x1.vco_switch_n_v2_3/selb                  1.8
sel3                                         0
x1.net3                               0.870271
x1.net5                                1.77531
x1.net2                                1.76679
x1.net4                               0.698728
x1.pg3                                     1.8
x1.pg0                                     1.8
x1.vco_switch_p_0/selb                     1.8
x1.pg1                                     1.8
x1.pg2                                     1.8
x1.vco_switch_p_2/selb                     1.8
x1.vco_switch_p_1/selb                     1.8
x1.vco_switch_p_3/selb                     1.8
vdd                                        1.8
buf1_out                           2.60627e-09
net4                                4.9501e-09
net5                                4.9501e-09
net3                                4.9501e-09
buf16_out                           4.9501e-09
v1#branch                          1.76416e-11
vmeas_current_gnd#branch           2.14689e-05
vmeas_current_vdd#branch           2.14689e-05
v2#branch                          -2.1469e-05
vsel3#branch                                 0
vsel2#branch                                 0
vsel1#branch                                 0
vsel0#branch                                 0


No. of Data Rows : 7020

  Measurements for Transient Analysis


Error: measure  tvco_outside_while  (TRIG) : out of interval
 .meas tran tvco_outside_while trig v(out) val=0.5*1.8 rise=50 targ v(out) val=0.5*1.8 rise=51 failed!

Original line no.: 0, new internal line no.: 12460:
Undefined number [tvco_outside_while]
Original line no.: 0, new internal line no.: 12460:
Cannot compute substitute
fvco_outside_while  =   failed
supply_current_rms_outside_while=   1.96575e-05 from=  1.00000e-08 to=  4.00000e-08
ground_current_rms_outside_while=   2.63321e-05 from=  1.00000e-08 to=  4.00000e-08
vctrl_avg_outside_while=  3.000000e-01 from=  1.000000e-08 to=  2.000500e-08
vhigh_outside_while =  3.502476e-06 at=  1.001500e-08
vlow_outside_while  =  -2.768660e-06 at=  1.000500e-08
peak_to_peak_outside_while=  6.27114e-06
supply_current_rms  =   5.06429e-05 from=  0.00000e+00 to=  7.00000e-08

binary raw file "3-stage_cs-vco_tb_WITH_APPENDWRITE.raw"
Reset re-loads circuit ** sch_path: /home/darunix/gitsandboxes/vco/vco/xschem/3-stage_cs-vco_tb.sch

Circuit: ** sch_path: /home/darunix/gitsandboxes/vco/vco/xschem/3-stage_cs-vco_tb.sch

option SCALE: Scale is set to 1e-06 for instance and model parameters
Doing analysis at TEMP = 27.000000 and TNOM = 27.000000

Warning: v1: no DC value, transient time 0 value used

Initial Transient Solution
--------------------------

Node                                   Voltage
----                                   -------
x1.net7                                    1.8
x1.net6                            1.74924e-06
net1                                       1.8
net2                                         0
out                                6.80528e-09
x1.vgp                                 1.67848
vctrl                                        0
x1.net8                               0.870271
x1.ng3                             9.63187e-09
x1.ng0                             9.63187e-09
x1.vco_switch_n_v2_0/selb                  1.8
sel0                                         0
x1.ng1                             9.63187e-09
x1.vco_switch_n_v2_1/selb                  1.8
sel1                                         0
x1.ng2                             9.63187e-09
x1.vco_switch_n_v2_2/selb                  1.8
sel2                                         0
x1.vco_switch_n_v2_3/selb                  1.8
sel3                                         0
x1.net3                               0.870271
x1.net5                                1.77531
x1.net2                                1.76679
x1.net4                               0.698728
x1.pg3                                     1.8
x1.pg0                                     1.8
x1.vco_switch_p_0/selb                     1.8
x1.pg1                                     1.8
x1.pg2                                     1.8
x1.vco_switch_p_2/selb                     1.8
x1.vco_switch_p_1/selb                     1.8
x1.vco_switch_p_3/selb                     1.8
vdd                                        1.8
buf1_out                           2.60627e-09
net4                                4.9501e-09
net5                                4.9501e-09
net3                                4.9501e-09
buf16_out                           4.9501e-09
v1#branch                          1.76416e-11
vmeas_current_gnd#branch           2.14689e-05
vmeas_current_vdd#branch           2.14689e-05
v2#branch                          -2.1469e-05
vsel3#branch                                 0
vsel2#branch                                 0
vsel1#branch                                 0
vsel0#branch                                 0


No. of Data Rows : 7020

  Measurements for Transient Analysis


Error: measure  tvco_outside_while  (TRIG) : out of interval
 .meas tran tvco_outside_while trig v(out) val=0.5*1.8 rise=50 targ v(out) val=0.5*1.8 rise=51 failed!

Original line no.: 0, new internal line no.: 12460:
Undefined number [tvco_outside_while]
Original line no.: 0, new internal line no.: 12460:
Cannot compute substitute
fvco_outside_while  =   failed
supply_current_rms_outside_while=   2.61733e-05 from=  1.00000e-08 to=  4.00000e-08
ground_current_rms_outside_while=   1.52479e-05 from=  1.00000e-08 to=  4.00000e-08
vctrl_avg_outside_while=  4.000000e-01 from=  1.000000e-08 to=  2.000500e-08
vhigh_outside_while =  7.383879e-07 at=  1.045500e-08
vlow_outside_while  =  -7.244229e-07 at=  1.044500e-08
peak_to_peak_outside_while=  1.46281e-06
supply_current_rms  =   5.33981e-05 from=  0.00000e+00 to=  7.00000e-08

binary raw file "3-stage_cs-vco_tb_WITH_APPENDWRITE.raw"
Reset re-loads circuit ** sch_path: /home/darunix/gitsandboxes/vco/vco/xschem/3-stage_cs-vco_tb.sch

Circuit: ** sch_path: /home/darunix/gitsandboxes/vco/vco/xschem/3-stage_cs-vco_tb.sch

option SCALE: Scale is set to 1e-06 for instance and model parameters
Doing analysis at TEMP = 27.000000 and TNOM = 27.000000

Warning: v1: no DC value, transient time 0 value used

Initial Transient Solution
--------------------------

Node                                   Voltage
----                                   -------
x1.net7                                    1.8
x1.net6                            1.74924e-06
net1                                       1.8
net2                                         0
out                                6.80528e-09
x1.vgp                                 1.67848
vctrl                                        0
x1.net8                               0.870271
x1.ng3                             9.63187e-09
x1.ng0                             9.63187e-09
x1.vco_switch_n_v2_0/selb                  1.8
sel0                                         0
x1.ng1                             9.63187e-09
x1.vco_switch_n_v2_1/selb                  1.8
sel1                                         0
x1.ng2                             9.63187e-09
x1.vco_switch_n_v2_2/selb                  1.8
sel2                                         0
x1.vco_switch_n_v2_3/selb                  1.8
sel3                                         0
x1.net3                               0.870271
x1.net5                                1.77531
x1.net2                                1.76679
x1.net4                               0.698728
x1.pg3                                     1.8
x1.pg0                                     1.8
x1.vco_switch_p_0/selb                     1.8
x1.pg1                                     1.8
x1.pg2                                     1.8
x1.vco_switch_p_2/selb                     1.8
x1.vco_switch_p_1/selb                     1.8
x1.vco_switch_p_3/selb                     1.8
vdd                                        1.8
buf1_out                           2.60627e-09
net4                                4.9501e-09
net5                                4.9501e-09
net3                                4.9501e-09
buf16_out                           4.9501e-09
v1#branch                          1.76416e-11
vmeas_current_gnd#branch           2.14689e-05
vmeas_current_vdd#branch           2.14689e-05
v2#branch                          -2.1469e-05
vsel3#branch                                 0
vsel2#branch                                 0
vsel1#branch                                 0
vsel0#branch                                 0


No. of Data Rows : 7020

  Measurements for Transient Analysis


Error: measure  tvco_outside_while  (TRIG) : out of interval
 .meas tran tvco_outside_while trig v(out) val=0.5*1.8 rise=50 targ v(out) val=0.5*1.8 rise=51 failed!

Original line no.: 0, new internal line no.: 12460:
Undefined number [tvco_outside_while]
Original line no.: 0, new internal line no.: 12460:
Cannot compute substitute
fvco_outside_while  =   failed
supply_current_rms_outside_while=   1.51019e-05 from=  1.00000e-08 to=  4.00000e-08
ground_current_rms_outside_while=   2.76534e-05 from=  1.00000e-08 to=  4.00000e-08
vctrl_avg_outside_while=  5.000000e-01 from=  1.000000e-08 to=  2.000500e-08
vhigh_outside_while =  1.290746e-06 at=  1.388500e-08
vlow_outside_while  =  -1.111609e-06 at=  1.211500e-08
peak_to_peak_outside_while=  2.40236e-06
supply_current_rms  =   5.48683e-05 from=  0.00000e+00 to=  7.00000e-08

binary raw file "3-stage_cs-vco_tb_WITH_APPENDWRITE.raw"
Reset re-loads circuit ** sch_path: /home/darunix/gitsandboxes/vco/vco/xschem/3-stage_cs-vco_tb.sch

Circuit: ** sch_path: /home/darunix/gitsandboxes/vco/vco/xschem/3-stage_cs-vco_tb.sch

option SCALE: Scale is set to 1e-06 for instance and model parameters
Doing analysis at TEMP = 27.000000 and TNOM = 27.000000

Warning: v1: no DC value, transient time 0 value used

Initial Transient Solution
--------------------------

Node                                   Voltage
----                                   -------
x1.net7                                    1.8
x1.net6                            1.74924e-06
net1                                       1.8
net2                                         0
out                                6.80528e-09
x1.vgp                                 1.67848
vctrl                                        0
x1.net8                               0.870271
x1.ng3                             9.63187e-09
x1.ng0                             9.63187e-09
x1.vco_switch_n_v2_0/selb                  1.8
sel0                                         0
x1.ng1                             9.63187e-09
x1.vco_switch_n_v2_1/selb                  1.8
sel1                                         0
x1.ng2                             9.63187e-09
x1.vco_switch_n_v2_2/selb                  1.8
sel2                                         0
x1.vco_switch_n_v2_3/selb                  1.8
sel3                                         0
x1.net3                               0.870271
x1.net5                                1.77531
x1.net2                                1.76679
x1.net4                               0.698728
x1.pg3                                     1.8
x1.pg0                                     1.8
x1.vco_switch_p_0/selb                     1.8
x1.pg1                                     1.8
x1.pg2                                     1.8
x1.vco_switch_p_2/selb                     1.8
x1.vco_switch_p_1/selb                     1.8
x1.vco_switch_p_3/selb                     1.8
vdd                                        1.8
buf1_out                           2.60627e-09
net4                                4.9501e-09
net5                                4.9501e-09
net3                                4.9501e-09
buf16_out                           4.9501e-09
v1#branch                          1.76416e-11
vmeas_current_gnd#branch           2.14689e-05
vmeas_current_vdd#branch           2.14689e-05
v2#branch                          -2.1469e-05
vsel3#branch                                 0
vsel2#branch                                 0
vsel1#branch                                 0
vsel0#branch                                 0


No. of Data Rows : 7020

  Measurements for Transient Analysis


Error: measure  tvco_outside_while  (TRIG) : out of interval
 .meas tran tvco_outside_while trig v(out) val=0.5*1.8 rise=50 targ v(out) val=0.5*1.8 rise=51 failed!

Original line no.: 0, new internal line no.: 12460:
Undefined number [tvco_outside_while]
Original line no.: 0, new internal line no.: 12460:
Cannot compute substitute
fvco_outside_while  =   failed
supply_current_rms_outside_while=   8.66225e-05 from=  1.00000e-08 to=  4.00000e-08
ground_current_rms_outside_while=   8.03177e-05 from=  1.00000e-08 to=  4.00000e-08
vctrl_avg_outside_while=  6.000000e-01 from=  1.000000e-08 to=  2.000500e-08
vhigh_outside_while =  1.926349e+00 at=  1.416500e-08
vlow_outside_while  =  -7.607944e-02 at=  1.936500e-08
peak_to_peak_outside_while=  2.00243e+00
supply_current_rms  =   9.26284e-05 from=  0.00000e+00 to=  7.00000e-08

binary raw file "3-stage_cs-vco_tb_WITH_APPENDWRITE.raw"
Reset re-loads circuit ** sch_path: /home/darunix/gitsandboxes/vco/vco/xschem/3-stage_cs-vco_tb.sch

Circuit: ** sch_path: /home/darunix/gitsandboxes/vco/vco/xschem/3-stage_cs-vco_tb.sch

option SCALE: Scale is set to 1e-06 for instance and model parameters
Doing analysis at TEMP = 27.000000 and TNOM = 27.000000

Warning: v1: no DC value, transient time 0 value used

Initial Transient Solution
--------------------------

Node                                   Voltage
----                                   -------
x1.net7                                    1.8
x1.net6                            1.74924e-06
net1                                       1.8
net2                                         0
out                                6.80528e-09
x1.vgp                                 1.67848
vctrl                                        0
x1.net8                               0.870271
x1.ng3                             9.63187e-09
x1.ng0                             9.63187e-09
x1.vco_switch_n_v2_0/selb                  1.8
sel0                                         0
x1.ng1                             9.63187e-09
x1.vco_switch_n_v2_1/selb                  1.8
sel1                                         0
x1.ng2                             9.63187e-09
x1.vco_switch_n_v2_2/selb                  1.8
sel2                                         0
x1.vco_switch_n_v2_3/selb                  1.8
sel3                                         0
x1.net3                               0.870271
x1.net5                                1.77531
x1.net2                                1.76679
x1.net4                               0.698728
x1.pg3                                     1.8
x1.pg0                                     1.8
x1.vco_switch_p_0/selb                     1.8
x1.pg1                                     1.8
x1.pg2                                     1.8
x1.vco_switch_p_2/selb                     1.8
x1.vco_switch_p_1/selb                     1.8
x1.vco_switch_p_3/selb                     1.8
vdd                                        1.8
buf1_out                           2.60627e-09
net4                                4.9501e-09
net5                                4.9501e-09
net3                                4.9501e-09
buf16_out                           4.9501e-09
v1#branch                          1.76416e-11
vmeas_current_gnd#branch           2.14689e-05
vmeas_current_vdd#branch           2.14689e-05
v2#branch                          -2.1469e-05
vsel3#branch                                 0
vsel2#branch                                 0
vsel1#branch                                 0
vsel0#branch                                 0


No. of Data Rows : 7020

  Measurements for Transient Analysis

tvco_outside_while  =  1.219275e-09 targ=  5.727549e-08 trig=  5.605621e-08
fvco_outside_while  =  8.20159e+08
supply_current_rms_outside_while=   1.52863e-04 from=  1.00000e-08 to=  4.00000e-08
ground_current_rms_outside_while=   1.75645e-04 from=  1.00000e-08 to=  4.00000e-08
vctrl_avg_outside_while=  7.000000e-01 from=  1.000000e-08 to=  2.000500e-08
vhigh_outside_while =  1.927590e+00 at=  1.146500e-08
vlow_outside_while  =  -8.358438e-02 at=  1.892500e-08
peak_to_peak_outside_while=  2.01117e+00
supply_current_rms  =   1.60002e-04 from=  0.00000e+00 to=  7.00000e-08

binary raw file "3-stage_cs-vco_tb_WITH_APPENDWRITE.raw"
Reset re-loads circuit ** sch_path: /home/darunix/gitsandboxes/vco/vco/xschem/3-stage_cs-vco_tb.sch

Circuit: ** sch_path: /home/darunix/gitsandboxes/vco/vco/xschem/3-stage_cs-vco_tb.sch

option SCALE: Scale is set to 1e-06 for instance and model parameters
Doing analysis at TEMP = 27.000000 and TNOM = 27.000000

Warning: v1: no DC value, transient time 0 value used

Initial Transient Solution
--------------------------

Node                                   Voltage
----                                   -------
x1.net7                                    1.8
x1.net6                            1.74924e-06
net1                                       1.8
net2                                         0
out                                6.80528e-09
x1.vgp                                 1.67848
vctrl                                        0
x1.net8                               0.870271
x1.ng3                             9.63187e-09
x1.ng0                             9.63187e-09
x1.vco_switch_n_v2_0/selb                  1.8
sel0                                         0
x1.ng1                             9.63187e-09
x1.vco_switch_n_v2_1/selb                  1.8
sel1                                         0
x1.ng2                             9.63187e-09
x1.vco_switch_n_v2_2/selb                  1.8
sel2                                         0
x1.vco_switch_n_v2_3/selb                  1.8
sel3                                         0
x1.net3                               0.870271
x1.net5                                1.77531
x1.net2                                1.76679
x1.net4                               0.698728
x1.pg3                                     1.8
x1.pg0                                     1.8
x1.vco_switch_p_0/selb                     1.8
x1.pg1                                     1.8
x1.pg2                                     1.8
x1.vco_switch_p_2/selb                     1.8
x1.vco_switch_p_1/selb                     1.8
x1.vco_switch_p_3/selb                     1.8
vdd                                        1.8
buf1_out                           2.60627e-09
net4                                4.9501e-09
net5                                4.9501e-09
net3                                4.9501e-09
buf16_out                           4.9501e-09
v1#branch                          1.76416e-11
vmeas_current_gnd#branch           2.14689e-05
vmeas_current_vdd#branch           2.14689e-05
v2#branch                          -2.1469e-05
vsel3#branch                                 0
vsel2#branch                                 0
vsel1#branch                                 0
vsel0#branch                                 0


No. of Data Rows : 7020

  Measurements for Transient Analysis

tvco_outside_while  =  5.550529e-10 targ=  2.903311e-08 trig=  2.847806e-08
fvco_outside_while  =  1.80163e+09
supply_current_rms_outside_while=   2.21881e-04 from=  1.00000e-08 to=  4.00000e-08
ground_current_rms_outside_while=   2.42489e-04 from=  1.00000e-08 to=  4.00000e-08
vctrl_avg_outside_while=  8.000000e-01 from=  1.000000e-08 to=  2.000500e-08
vhigh_outside_while =  1.928091e+00 at=  1.262500e-08
vlow_outside_while  =  -8.416978e-02 at=  1.790500e-08
peak_to_peak_outside_while=  2.01226e+00
supply_current_rms  =   2.20979e-04 from=  0.00000e+00 to=  7.00000e-08

binary raw file "3-stage_cs-vco_tb_WITH_APPENDWRITE.raw"
Reset re-loads circuit ** sch_path: /home/darunix/gitsandboxes/vco/vco/xschem/3-stage_cs-vco_tb.sch

Circuit: ** sch_path: /home/darunix/gitsandboxes/vco/vco/xschem/3-stage_cs-vco_tb.sch

option SCALE: Scale is set to 1e-06 for instance and model parameters
Doing analysis at TEMP = 27.000000 and TNOM = 27.000000

Warning: v1: no DC value, transient time 0 value used

Initial Transient Solution
--------------------------

Node                                   Voltage
----                                   -------
x1.net7                                    1.8
x1.net6                            1.74924e-06
net1                                       1.8
net2                                         0
out                                6.80528e-09
x1.vgp                                 1.67848
vctrl                                        0
x1.net8                               0.870271
x1.ng3                             9.63187e-09
x1.ng0                             9.63187e-09
x1.vco_switch_n_v2_0/selb                  1.8
sel0                                         0
x1.ng1                             9.63187e-09
x1.vco_switch_n_v2_1/selb                  1.8
sel1                                         0
x1.ng2                             9.63187e-09
x1.vco_switch_n_v2_2/selb                  1.8
sel2                                         0
x1.vco_switch_n_v2_3/selb                  1.8
sel3                                         0
x1.net3                               0.870271
x1.net5                                1.77531
x1.net2                                1.76679
x1.net4                               0.698728
x1.pg3                                     1.8
x1.pg0                                     1.8
x1.vco_switch_p_0/selb                     1.8
x1.pg1                                     1.8
x1.pg2                                     1.8
x1.vco_switch_p_2/selb                     1.8
x1.vco_switch_p_1/selb                     1.8
x1.vco_switch_p_3/selb                     1.8
vdd                                        1.8
buf1_out                           2.60627e-09
net4                                4.9501e-09
net5                                4.9501e-09
net3                                4.9501e-09
buf16_out                           4.9501e-09
v1#branch                          1.76416e-11
vmeas_current_gnd#branch           2.14689e-05
vmeas_current_vdd#branch           2.14689e-05
v2#branch                          -2.1469e-05
vsel3#branch                                 0
vsel2#branch                                 0
vsel1#branch                                 0
vsel0#branch                                 0


No. of Data Rows : 7020

  Measurements for Transient Analysis

tvco_outside_while  =  3.723450e-10 targ=  2.031834e-08 trig=  1.994599e-08
fvco_outside_while  =  2.68568e+09
supply_current_rms_outside_while=   3.23747e-04 from=  1.00000e-08 to=  4.00000e-08
ground_current_rms_outside_while=   3.29682e-04 from=  1.00000e-08 to=  4.00000e-08
vctrl_avg_outside_while=  9.000000e-01 from=  1.000000e-08 to=  2.000500e-08
vhigh_outside_while =  1.928581e+00 at=  1.677500e-08
vlow_outside_while  =  -8.323504e-02 at=  1.321500e-08
peak_to_peak_outside_while=  2.01182e+00
supply_current_rms  =   3.19775e-04 from=  0.00000e+00 to=  7.00000e-08

binary raw file "3-stage_cs-vco_tb_WITH_APPENDWRITE.raw"
Reset re-loads circuit ** sch_path: /home/darunix/gitsandboxes/vco/vco/xschem/3-stage_cs-vco_tb.sch

Circuit: ** sch_path: /home/darunix/gitsandboxes/vco/vco/xschem/3-stage_cs-vco_tb.sch

option SCALE: Scale is set to 1e-06 for instance and model parameters
Doing analysis at TEMP = 27.000000 and TNOM = 27.000000

Warning: v1: no DC value, transient time 0 value used

Initial Transient Solution
--------------------------

Node                                   Voltage
----                                   -------
x1.net7                                    1.8
x1.net6                            1.74924e-06
net1                                       1.8
net2                                         0
out                                6.80528e-09
x1.vgp                                 1.67848
vctrl                                        0
x1.net8                               0.870271
x1.ng3                             9.63187e-09
x1.ng0                             9.63187e-09
x1.vco_switch_n_v2_0/selb                  1.8
sel0                                         0
x1.ng1                             9.63187e-09
x1.vco_switch_n_v2_1/selb                  1.8
sel1                                         0
x1.ng2                             9.63187e-09
x1.vco_switch_n_v2_2/selb                  1.8
sel2                                         0
x1.vco_switch_n_v2_3/selb                  1.8
sel3                                         0
x1.net3                               0.870271
x1.net5                                1.77531
x1.net2                                1.76679
x1.net4                               0.698728
x1.pg3                                     1.8
x1.pg0                                     1.8
x1.vco_switch_p_0/selb                     1.8
x1.pg1                                     1.8
x1.pg2                                     1.8
x1.vco_switch_p_2/selb                     1.8
x1.vco_switch_p_1/selb                     1.8
x1.vco_switch_p_3/selb                     1.8
vdd                                        1.8
buf1_out                           2.60627e-09
net4                                4.9501e-09
net5                                4.9501e-09
net3                                4.9501e-09
buf16_out                           4.9501e-09
v1#branch                          1.76416e-11
vmeas_current_gnd#branch           2.14689e-05
vmeas_current_vdd#branch           2.14689e-05
v2#branch                          -2.1469e-05
vsel3#branch                                 0
vsel2#branch                                 0
vsel1#branch                                 0
vsel0#branch                                 0


No. of Data Rows : 7020

  Measurements for Transient Analysis

tvco_outside_while  =  3.213757e-10 targ=  1.782538e-08 trig=  1.750400e-08
fvco_outside_while  =  3.11162e+09
supply_current_rms_outside_while=   4.01999e-04 from=  1.00000e-08 to=  4.00000e-08
ground_current_rms_outside_while=   3.99814e-04 from=  1.00000e-08 to=  4.00000e-08
vctrl_avg_outside_while=  1.000000e+00 from=  1.000000e-08 to=  2.000500e-08
vhigh_outside_while =  1.928540e+00 at=  1.186500e-08
vlow_outside_while  =  -8.228328e-02 at=  1.908500e-08
peak_to_peak_outside_while=  2.01082e+00
supply_current_rms  =   3.95742e-04 from=  0.00000e+00 to=  7.00000e-08

binary raw file "3-stage_cs-vco_tb_WITH_APPENDWRITE.raw"
Reset re-loads circuit ** sch_path: /home/darunix/gitsandboxes/vco/vco/xschem/3-stage_cs-vco_tb.sch

Circuit: ** sch_path: /home/darunix/gitsandboxes/vco/vco/xschem/3-stage_cs-vco_tb.sch

option SCALE: Scale is set to 1e-06 for instance and model parameters
Doing analysis at TEMP = 27.000000 and TNOM = 27.000000

Warning: v1: no DC value, transient time 0 value used

Initial Transient Solution
--------------------------

Node                                   Voltage
----                                   -------
x1.net7                                    1.8
x1.net6                            1.74924e-06
net1                                       1.8
net2                                         0
out                                6.80528e-09
x1.vgp                                 1.67848
vctrl                                        0
x1.net8                               0.870271
x1.ng3                             9.63187e-09
x1.ng0                             9.63187e-09
x1.vco_switch_n_v2_0/selb                  1.8
sel0                                         0
x1.ng1                             9.63187e-09
x1.vco_switch_n_v2_1/selb                  1.8
sel1                                         0
x1.ng2                             9.63187e-09
x1.vco_switch_n_v2_2/selb                  1.8
sel2                                         0
x1.vco_switch_n_v2_3/selb                  1.8
sel3                                         0
x1.net3                               0.870271
x1.net5                                1.77531
x1.net2                                1.76679
x1.net4                               0.698728
x1.pg3                                     1.8
x1.pg0                                     1.8
x1.vco_switch_p_0/selb                     1.8
x1.pg1                                     1.8
x1.pg2                                     1.8
x1.vco_switch_p_2/selb                     1.8
x1.vco_switch_p_1/selb                     1.8
x1.vco_switch_p_3/selb                     1.8
vdd                                        1.8
buf1_out                           2.60627e-09
net4                                4.9501e-09
net5                                4.9501e-09
net3                                4.9501e-09
buf16_out                           4.9501e-09
v1#branch                          1.76416e-11
vmeas_current_gnd#branch           2.14689e-05
vmeas_current_vdd#branch           2.14689e-05
v2#branch                          -2.1469e-05
vsel3#branch                                 0
vsel2#branch                                 0
vsel1#branch                                 0
vsel0#branch                                 0


No. of Data Rows : 7020

  Measurements for Transient Analysis

tvco_outside_while  =  3.067518e-10 targ=  1.709735e-08 trig=  1.679060e-08
fvco_outside_while  =  3.25996e+09
supply_current_rms_outside_while=   4.41493e-04 from=  1.00000e-08 to=  4.00000e-08
ground_current_rms_outside_while=   4.42932e-04 from=  1.00000e-08 to=  4.00000e-08
vctrl_avg_outside_while=  1.100000e+00 from=  1.000000e-08 to=  2.000500e-08
vhigh_outside_while =  1.928154e+00 at=  1.753500e-08
vlow_outside_while  =  -8.162204e-02 at=  1.952500e-08
peak_to_peak_outside_while=  2.00978e+00
supply_current_rms  =   4.35011e-04 from=  0.00000e+00 to=  7.00000e-08

binary raw file "3-stage_cs-vco_tb_WITH_APPENDWRITE.raw"
Reset re-loads circuit ** sch_path: /home/darunix/gitsandboxes/vco/vco/xschem/3-stage_cs-vco_tb.sch

Circuit: ** sch_path: /home/darunix/gitsandboxes/vco/vco/xschem/3-stage_cs-vco_tb.sch

option SCALE: Scale is set to 1e-06 for instance and model parameters
Doing analysis at TEMP = 27.000000 and TNOM = 27.000000

Warning: v1: no DC value, transient time 0 value used

Initial Transient Solution
--------------------------

Node                                   Voltage
----                                   -------
x1.net7                                    1.8
x1.net6                            1.74924e-06
net1                                       1.8
net2                                         0
out                                6.80528e-09
x1.vgp                                 1.67848
vctrl                                        0
x1.net8                               0.870271
x1.ng3                             9.63187e-09
x1.ng0                             9.63187e-09
x1.vco_switch_n_v2_0/selb                  1.8
sel0                                         0
x1.ng1                             9.63187e-09
x1.vco_switch_n_v2_1/selb                  1.8
sel1                                         0
x1.ng2                             9.63187e-09
x1.vco_switch_n_v2_2/selb                  1.8
sel2                                         0
x1.vco_switch_n_v2_3/selb                  1.8
sel3                                         0
x1.net3                               0.870271
x1.net5                                1.77531
x1.net2                                1.76679
x1.net4                               0.698728
x1.pg3                                     1.8
x1.pg0                                     1.8
x1.vco_switch_p_0/selb                     1.8
x1.pg1                                     1.8
x1.pg2                                     1.8
x1.vco_switch_p_2/selb                     1.8
x1.vco_switch_p_1/selb                     1.8
x1.vco_switch_p_3/selb                     1.8
vdd                                        1.8
buf1_out                           2.60627e-09
net4                                4.9501e-09
net5                                4.9501e-09
net3                                4.9501e-09
buf16_out                           4.9501e-09
v1#branch                          1.76416e-11
vmeas_current_gnd#branch           2.14689e-05
vmeas_current_vdd#branch           2.14689e-05
v2#branch                          -2.1469e-05
vsel3#branch                                 0
vsel2#branch                                 0
vsel1#branch                                 0
vsel0#branch                                 0


No. of Data Rows : 7020

  Measurements for Transient Analysis

tvco_outside_while  =  2.999080e-10 targ=  1.675532e-08 trig=  1.645541e-08
fvco_outside_while  =  3.33436e+09
supply_current_rms_outside_while=   1.22433e-03 from=  1.00000e-08 to=  4.00000e-08
ground_current_rms_outside_while=   8.32445e-04 from=  1.00000e-08 to=  4.00000e-08
vctrl_avg_outside_while=  1.200000e+00 from=  1.000000e-08 to=  2.000500e-08
vhigh_outside_while =  1.928053e+00 at=  1.298500e-08
vlow_outside_while  =  -7.868092e-02 at=  1.013500e-08
peak_to_peak_outside_while=  2.00673e+00
supply_current_rms  =   1.55254e-03 from=  0.00000e+00 to=  7.00000e-08

binary raw file "3-stage_cs-vco_tb_WITH_APPENDWRITE.raw"
Reset re-loads circuit ** sch_path: /home/darunix/gitsandboxes/vco/vco/xschem/3-stage_cs-vco_tb.sch

Circuit: ** sch_path: /home/darunix/gitsandboxes/vco/vco/xschem/3-stage_cs-vco_tb.sch

option SCALE: Scale is set to 1e-06 for instance and model parameters
Doing analysis at TEMP = 27.000000 and TNOM = 27.000000

Warning: v1: no DC value, transient time 0 value used

Initial Transient Solution
--------------------------

Node                                   Voltage
----                                   -------
x1.net7                                    1.8
x1.net6                            1.74924e-06
net1                                       1.8
net2                                         0
out                                6.80528e-09
x1.vgp                                 1.67848
vctrl                                        0
x1.net8                               0.870271
x1.ng3                             9.63187e-09
x1.ng0                             9.63187e-09
x1.vco_switch_n_v2_0/selb                  1.8
sel0                                         0
x1.ng1                             9.63187e-09
x1.vco_switch_n_v2_1/selb                  1.8
sel1                                         0
x1.ng2                             9.63187e-09
x1.vco_switch_n_v2_2/selb                  1.8
sel2                                         0
x1.vco_switch_n_v2_3/selb                  1.8
sel3                                         0
x1.net3                               0.870271
x1.net5                                1.77531
x1.net2                                1.76679
x1.net4                               0.698728
x1.pg3                                     1.8
x1.pg0                                     1.8
x1.vco_switch_p_0/selb                     1.8
x1.pg1                                     1.8
x1.pg2                                     1.8
x1.vco_switch_p_2/selb                     1.8
x1.vco_switch_p_1/selb                     1.8
x1.vco_switch_p_3/selb                     1.8
vdd                                        1.8
buf1_out                           2.60627e-09
net4                                4.9501e-09
net5                                4.9501e-09
net3                                4.9501e-09
buf16_out                           4.9501e-09
v1#branch                          1.76416e-11
vmeas_current_gnd#branch           2.14689e-05
vmeas_current_vdd#branch           2.14689e-05
v2#branch                          -2.1469e-05
vsel3#branch                                 0
vsel2#branch                                 0
vsel1#branch                                 0
vsel0#branch                                 0


No. of Data Rows : 7020

  Measurements for Transient Analysis

tvco_outside_while  =  2.961271e-10 targ=  1.656999e-08 trig=  1.627386e-08
fvco_outside_while  =  3.37693e+09
supply_current_rms_outside_while=   4.86435e-04 from=  1.00000e-08 to=  4.00000e-08
ground_current_rms_outside_while=   4.87383e-04 from=  1.00000e-08 to=  4.00000e-08
vctrl_avg_outside_while=  1.300000e+00 from=  1.000000e-08 to=  2.000500e-08
vhigh_outside_while =  1.928173e+00 at=  1.699500e-08
vlow_outside_while  =  -7.988881e-02 at=  1.980500e-08
peak_to_peak_outside_while=  2.00806e+00
supply_current_rms  =   4.79251e-04 from=  0.00000e+00 to=  7.00000e-08

binary raw file "3-stage_cs-vco_tb_WITH_APPENDWRITE.raw"
Reset re-loads circuit ** sch_path: /home/darunix/gitsandboxes/vco/vco/xschem/3-stage_cs-vco_tb.sch

Circuit: ** sch_path: /home/darunix/gitsandboxes/vco/vco/xschem/3-stage_cs-vco_tb.sch

option SCALE: Scale is set to 1e-06 for instance and model parameters
Doing analysis at TEMP = 27.000000 and TNOM = 27.000000

Warning: v1: no DC value, transient time 0 value used

Initial Transient Solution
--------------------------

Node                                   Voltage
----                                   -------
x1.net7                                    1.8
x1.net6                            1.74924e-06
net1                                       1.8
net2                                         0
out                                6.80528e-09
x1.vgp                                 1.67848
vctrl                                        0
x1.net8                               0.870271
x1.ng3                             9.63187e-09
x1.ng0                             9.63187e-09
x1.vco_switch_n_v2_0/selb                  1.8
sel0                                         0
x1.ng1                             9.63187e-09
x1.vco_switch_n_v2_1/selb                  1.8
sel1                                         0
x1.ng2                             9.63187e-09
x1.vco_switch_n_v2_2/selb                  1.8
sel2                                         0
x1.vco_switch_n_v2_3/selb                  1.8
sel3                                         0
x1.net3                               0.870271
x1.net5                                1.77531
x1.net2                                1.76679
x1.net4                               0.698728
x1.pg3                                     1.8
x1.pg0                                     1.8
x1.vco_switch_p_0/selb                     1.8
x1.pg1                                     1.8
x1.pg2                                     1.8
x1.vco_switch_p_2/selb                     1.8
x1.vco_switch_p_1/selb                     1.8
x1.vco_switch_p_3/selb                     1.8
vdd                                        1.8
buf1_out                           2.60627e-09
net4                                4.9501e-09
net5                                4.9501e-09
net3                                4.9501e-09
buf16_out                           4.9501e-09
v1#branch                          1.76416e-11
vmeas_current_gnd#branch           2.14689e-05
vmeas_current_vdd#branch           2.14689e-05
v2#branch                          -2.1469e-05
vsel3#branch                                 0
vsel2#branch                                 0
vsel1#branch                                 0
vsel0#branch                                 0


No. of Data Rows : 7020

  Measurements for Transient Analysis

tvco_outside_while  =  2.941737e-10 targ=  1.644394e-08 trig=  1.614977e-08
fvco_outside_while  =  3.39935e+09
supply_current_rms_outside_while=   4.93905e-04 from=  1.00000e-08 to=  4.00000e-08
ground_current_rms_outside_while=   4.94981e-04 from=  1.00000e-08 to=  4.00000e-08
vctrl_avg_outside_while=  1.400000e+00 from=  1.000000e-08 to=  2.000500e-08
vhigh_outside_while =  1.928210e+00 at=  1.745500e-08
vlow_outside_while  =  -7.907816e-02 at=  1.612500e-08
peak_to_peak_outside_while=  2.00729e+00
supply_current_rms  =   4.87049e-04 from=  0.00000e+00 to=  7.00000e-08

binary raw file "3-stage_cs-vco_tb_WITH_APPENDWRITE.raw"
Reset re-loads circuit ** sch_path: /home/darunix/gitsandboxes/vco/vco/xschem/3-stage_cs-vco_tb.sch

Circuit: ** sch_path: /home/darunix/gitsandboxes/vco/vco/xschem/3-stage_cs-vco_tb.sch

option SCALE: Scale is set to 1e-06 for instance and model parameters
Doing analysis at TEMP = 27.000000 and TNOM = 27.000000

Warning: v1: no DC value, transient time 0 value used

Initial Transient Solution
--------------------------

Node                                   Voltage
----                                   -------
x1.net7                                    1.8
x1.net6                            1.74924e-06
net1                                       1.8
net2                                         0
out                                6.80528e-09
x1.vgp                                 1.67848
vctrl                                        0
x1.net8                               0.870271
x1.ng3                             9.63187e-09
x1.ng0                             9.63187e-09
x1.vco_switch_n_v2_0/selb                  1.8
sel0                                         0
x1.ng1                             9.63187e-09
x1.vco_switch_n_v2_1/selb                  1.8
sel1                                         0
x1.ng2                             9.63187e-09
x1.vco_switch_n_v2_2/selb                  1.8
sel2                                         0
x1.vco_switch_n_v2_3/selb                  1.8
sel3                                         0
x1.net3                               0.870271
x1.net5                                1.77531
x1.net2                                1.76679
x1.net4                               0.698728
x1.pg3                                     1.8
x1.pg0                                     1.8
x1.vco_switch_p_0/selb                     1.8
x1.pg1                                     1.8
x1.pg2                                     1.8
x1.vco_switch_p_2/selb                     1.8
x1.vco_switch_p_1/selb                     1.8
x1.vco_switch_p_3/selb                     1.8
vdd                                        1.8
buf1_out                           2.60627e-09
net4                                4.9501e-09
net5                                4.9501e-09
net3                                4.9501e-09
buf16_out                           4.9501e-09
v1#branch                          1.76416e-11
vmeas_current_gnd#branch           2.14689e-05
vmeas_current_vdd#branch           2.14689e-05
v2#branch                          -2.1469e-05
vsel3#branch                                 0
vsel2#branch                                 0
vsel1#branch                                 0
vsel0#branch                                 0


No. of Data Rows : 7020

  Measurements for Transient Analysis

tvco_outside_while  =  2.920152e-10 targ=  1.634927e-08 trig=  1.605725e-08
fvco_outside_while  =  3.42448e+09
supply_current_rms_outside_while=   5.00395e-04 from=  1.00000e-08 to=  4.00000e-08
ground_current_rms_outside_while=   5.01123e-04 from=  1.00000e-08 to=  4.00000e-08
vctrl_avg_outside_while=  1.500000e+00 from=  1.000000e-08 to=  2.000500e-08
vhigh_outside_while =  1.928236e+00 at=  1.180500e-08
vlow_outside_while  =  -7.838218e-02 at=  1.778500e-08
peak_to_peak_outside_while=  2.00662e+00
supply_current_rms  =   4.93683e-04 from=  0.00000e+00 to=  7.00000e-08

binary raw file "3-stage_cs-vco_tb_WITH_APPENDWRITE.raw"
Reset re-loads circuit ** sch_path: /home/darunix/gitsandboxes/vco/vco/xschem/3-stage_cs-vco_tb.sch

Circuit: ** sch_path: /home/darunix/gitsandboxes/vco/vco/xschem/3-stage_cs-vco_tb.sch

option SCALE: Scale is set to 1e-06 for instance and model parameters
Doing analysis at TEMP = 27.000000 and TNOM = 27.000000

Warning: v1: no DC value, transient time 0 value used

Initial Transient Solution
--------------------------

Node                                   Voltage
----                                   -------
x1.net7                                    1.8
x1.net6                            1.74924e-06
net1                                       1.8
net2                                         0
out                                6.80528e-09
x1.vgp                                 1.67848
vctrl                                        0
x1.net8                               0.870271
x1.ng3                             9.63187e-09
x1.ng0                             9.63187e-09
x1.vco_switch_n_v2_0/selb                  1.8
sel0                                         0
x1.ng1                             9.63187e-09
x1.vco_switch_n_v2_1/selb                  1.8
sel1                                         0
x1.ng2                             9.63187e-09
x1.vco_switch_n_v2_2/selb                  1.8
sel2                                         0
x1.vco_switch_n_v2_3/selb                  1.8
sel3                                         0
x1.net3                               0.870271
x1.net5                                1.77531
x1.net2                                1.76679
x1.net4                               0.698728
x1.pg3                                     1.8
x1.pg0                                     1.8
x1.vco_switch_p_0/selb                     1.8
x1.pg1                                     1.8
x1.pg2                                     1.8
x1.vco_switch_p_2/selb                     1.8
x1.vco_switch_p_1/selb                     1.8
x1.vco_switch_p_3/selb                     1.8
vdd                                        1.8
buf1_out                           2.60627e-09
net4                                4.9501e-09
net5                                4.9501e-09
net3                                4.9501e-09
buf16_out                           4.9501e-09
v1#branch                          1.76416e-11
vmeas_current_gnd#branch           2.14689e-05
vmeas_current_vdd#branch           2.14689e-05
v2#branch                          -2.1469e-05
vsel3#branch                                 0
vsel2#branch                                 0
vsel1#branch                                 0
vsel0#branch                                 0


No. of Data Rows : 7020

  Measurements for Transient Analysis

tvco_outside_while  =  2.906387e-10 targ=  1.627563e-08 trig=  1.598499e-08
fvco_outside_while  =  3.44070e+09
supply_current_rms_outside_while=   5.05101e-04 from=  1.00000e-08 to=  4.00000e-08
ground_current_rms_outside_while=   5.06348e-04 from=  1.00000e-08 to=  4.00000e-08
vctrl_avg_outside_while=  1.600000e+00 from=  1.000000e-08 to=  2.000500e-08
vhigh_outside_while =  1.928257e+00 at=  1.204500e-08
vlow_outside_while  =  -7.784299e-02 at=  1.799500e-08
peak_to_peak_outside_while=  2.00610e+00
supply_current_rms  =   4.97843e-04 from=  0.00000e+00 to=  7.00000e-08

binary raw file "3-stage_cs-vco_tb_WITH_APPENDWRITE.raw"
Reset re-loads circuit ** sch_path: /home/darunix/gitsandboxes/vco/vco/xschem/3-stage_cs-vco_tb.sch

Circuit: ** sch_path: /home/darunix/gitsandboxes/vco/vco/xschem/3-stage_cs-vco_tb.sch

option SCALE: Scale is set to 1e-06 for instance and model parameters
Doing analysis at TEMP = 27.000000 and TNOM = 27.000000

Warning: v1: no DC value, transient time 0 value used

Initial Transient Solution
--------------------------

Node                                   Voltage
----                                   -------
x1.net7                                    1.8
x1.net6                            1.74924e-06
net1                                       1.8
net2                                         0
out                                6.80528e-09
x1.vgp                                 1.67848
vctrl                                        0
x1.net8                               0.870271
x1.ng3                             9.63187e-09
x1.ng0                             9.63187e-09
x1.vco_switch_n_v2_0/selb                  1.8
sel0                                         0
x1.ng1                             9.63187e-09
x1.vco_switch_n_v2_1/selb                  1.8
sel1                                         0
x1.ng2                             9.63187e-09
x1.vco_switch_n_v2_2/selb                  1.8
sel2                                         0
x1.vco_switch_n_v2_3/selb                  1.8
sel3                                         0
x1.net3                               0.870271
x1.net5                                1.77531
x1.net2                                1.76679
x1.net4                               0.698728
x1.pg3                                     1.8
x1.pg0                                     1.8
x1.vco_switch_p_0/selb                     1.8
x1.pg1                                     1.8
x1.pg2                                     1.8
x1.vco_switch_p_2/selb                     1.8
x1.vco_switch_p_1/selb                     1.8
x1.vco_switch_p_3/selb                     1.8
vdd                                        1.8
buf1_out                           2.60627e-09
net4                                4.9501e-09
net5                                4.9501e-09
net3                                4.9501e-09
buf16_out                           4.9501e-09
v1#branch                          1.76416e-11
vmeas_current_gnd#branch           2.14689e-05
vmeas_current_vdd#branch           2.14689e-05
v2#branch                          -2.1469e-05
vsel3#branch                                 0
vsel2#branch                                 0
vsel1#branch                                 0
vsel0#branch                                 0


No. of Data Rows : 7020

  Measurements for Transient Analysis

tvco_outside_while  =  2.896241e-10 targ=  1.621650e-08 trig=  1.592687e-08
fvco_outside_while  =  3.45275e+09
supply_current_rms_outside_while=   5.08428e-04 from=  1.00000e-08 to=  4.00000e-08
ground_current_rms_outside_while=   5.09589e-04 from=  1.00000e-08 to=  4.00000e-08
vctrl_avg_outside_while=  1.700000e+00 from=  1.000000e-08 to=  2.000500e-08
vhigh_outside_while =  1.928276e+00 at=  1.750500e-08
vlow_outside_while  =  -7.738412e-02 at=  1.387500e-08
peak_to_peak_outside_while=  2.00566e+00
supply_current_rms  =   5.00932e-04 from=  0.00000e+00 to=  7.00000e-08

binary raw file "3-stage_cs-vco_tb_WITH_APPENDWRITE.raw"
Reset re-loads circuit ** sch_path: /home/darunix/gitsandboxes/vco/vco/xschem/3-stage_cs-vco_tb.sch

Circuit: ** sch_path: /home/darunix/gitsandboxes/vco/vco/xschem/3-stage_cs-vco_tb.sch

option SCALE: Scale is set to 1e-06 for instance and model parameters
Doing analysis at TEMP = 27.000000 and TNOM = 27.000000

Warning: v1: no DC value, transient time 0 value used

Initial Transient Solution
--------------------------

Node                                   Voltage
----                                   -------
x1.net7                                    1.8
x1.net6                            1.74924e-06
net1                                       1.8
net2                                         0
out                                6.80528e-09
x1.vgp                                 1.67848
vctrl                                        0
x1.net8                               0.870271
x1.ng3                             9.63187e-09
x1.ng0                             9.63187e-09
x1.vco_switch_n_v2_0/selb                  1.8
sel0                                         0
x1.ng1                             9.63187e-09
x1.vco_switch_n_v2_1/selb                  1.8
sel1                                         0
x1.ng2                             9.63187e-09
x1.vco_switch_n_v2_2/selb                  1.8
sel2                                         0
x1.vco_switch_n_v2_3/selb                  1.8
sel3                                         0
x1.net3                               0.870271
x1.net5                                1.77531
x1.net2                                1.76679
x1.net4                               0.698728
x1.pg3                                     1.8
x1.pg0                                     1.8
x1.vco_switch_p_0/selb                     1.8
x1.pg1                                     1.8
x1.pg2                                     1.8
x1.vco_switch_p_2/selb                     1.8
x1.vco_switch_p_1/selb                     1.8
x1.vco_switch_p_3/selb                     1.8
vdd                                        1.8
buf1_out                           2.60627e-09
net4                                4.9501e-09
net5                                4.9501e-09
net3                                4.9501e-09
buf16_out                           4.9501e-09
v1#branch                          1.76416e-11
vmeas_current_gnd#branch           2.14689e-05
vmeas_current_vdd#branch           2.14689e-05
v2#branch                          -2.1469e-05
vsel3#branch                                 0
vsel2#branch                                 0
vsel1#branch                                 0
vsel0#branch                                 0


No. of Data Rows : 7020

  Measurements for Transient Analysis

tvco_outside_while  =  2.886767e-10 targ=  1.616772e-08 trig=  1.587905e-08
fvco_outside_while  =  3.46408e+09
supply_current_rms_outside_while=   5.11942e-04 from=  1.00000e-08 to=  4.00000e-08
ground_current_rms_outside_while=   5.11167e-04 from=  1.00000e-08 to=  4.00000e-08
vctrl_avg_outside_while=  1.800000e+00 from=  1.000000e-08 to=  2.000500e-08
vhigh_outside_while =  1.928300e+00 at=  1.485500e-08
vlow_outside_while  =  -7.700404e-02 at=  1.152500e-08
peak_to_peak_outside_while=  2.00530e+00
supply_current_rms  =   5.04807e-04 from=  0.00000e+00 to=  7.00000e-08

binary raw file "3-stage_cs-vco_tb_WITH_APPENDWRITE.raw"
Doing analysis at TEMP = 27.000000 and TNOM = 27.000000

Warning: v1: no DC value, transient time 0 value used

  Measurements for Transient Analysis

tvco_outside_while  =  2.886767e-10 targ=  1.616772e-08 trig=  1.587905e-08
Original line no.: 0, new internal line no.: 12460:
insertnumber: fails.
  s = ".meas tran fvco_outside_while param=    3.464083085556678e+09   " u="  3.464083085556678e+09  " id=0
fvco_outside_while  =  3.46408e+09
supply_current_rms_outside_while=   5.11942e-04 from=  1.00000e-08 to=  4.00000e-08
ground_current_rms_outside_while=   5.11167e-04 from=  1.00000e-08 to=  4.00000e-08
vctrl_avg_outside_while=  1.800000e+00 from=  1.000000e-08 to=  2.000500e-08
vhigh_outside_while =  1.928300e+00 at=  1.485500e-08
vlow_outside_while  =  -7.700404e-02 at=  1.152500e-08
Original line no.: 0, new internal line no.: 12466:
insertnumber: fails.
  s = ".meas tran peak_to_peak_outside_while param=    2.005303996255893e+00   " u="  2.005303996255893e+00  " id=0
peak_to_peak_outside_while=  2.00530e+00
supply_current_rms  =   5.04807e-04 from=  0.00000e+00 to=  7.00000e-08


Total analysis time (seconds) = 10.0878

Total CPU time (seconds) = 201.913 

Total DRAM available = 7952.234 MB.
DRAM currently available =  129.441 MB.
Maximum ngspice program size =  684.824 MB.
Current ngspice program size =  666.086 MB.

Shared ngspice pages =    8.977 MB.
Text (code) pages =    7.879 MB.
Stack = 0 bytes.
Library pages =  657.340 MB.

