
Compatibility modes selected: hs a

Warning: m=xx on .subckt line will override multiplier m hierarchy!


Circuit: ** sch_path: /home/darunix/gitsandboxes/vco/vco/xschem/3-stage_cs-vco_tb.sch

option SCALE: Scale is set to 1e-06 for instance and model parameters
Reset re-loads circuit ** sch_path: /home/darunix/gitsandboxes/vco/vco/xschem/3-stage_cs-vco_tb.sch

Circuit: ** sch_path: /home/darunix/gitsandboxes/vco/vco/xschem/3-stage_cs-vco_tb.sch

option SCALE: Scale is set to 1e-06 for instance and model parameters
Reset re-loads circuit ** sch_path: /home/darunix/gitsandboxes/vco/vco/xschem/3-stage_cs-vco_tb.sch

Circuit: ** sch_path: /home/darunix/gitsandboxes/vco/vco/xschem/3-stage_cs-vco_tb.sch

option SCALE: Scale is set to 1e-06 for instance and model parameters
Doing analysis at TEMP = 27.000000 and TNOM = 27.000000

Warning: v1: no DC value, transient time 0 value used

Initial Transient Solution
--------------------------

Node                                   Voltage
----                                   -------
x1.net7                                    1.8
x1.net6                            1.12909e-06
net1                                       1.8
net2                                         0
out                                6.80528e-09
x1.vgp                                 1.66135
vctrl                                        0
x1.net8                               0.952127
x1.ng3                             9.63187e-09
x1.net5                                    1.8
x1.ng0                             3.93259e-09
x1.vco_switch_n_v2_0/selb          2.69671e-09
sel0                                       1.8
x1.ng1                             3.93259e-09
x1.vco_switch_n_v2_1/selb          2.69671e-09
sel1                                       1.8
x1.ng2                             3.93259e-09
x1.vco_switch_n_v2_2/selb          2.69671e-09
sel2                                       1.8
x1.vco_switch_n_v2_3/selb                  1.8
sel3                                         0
x1.net3                               0.952128
x1.net2                                 1.7937
x1.net4                               0.102646
x1.pg3                                     1.8
x1.pg0                                 1.66135
x1.vco_switch_p_0/selb             2.69671e-09
x1.pg1                                 1.66135
x1.pg2                                 1.66135
x1.vco_switch_p_2/selb             2.69671e-09
x1.vco_switch_p_1/selb             2.69671e-09
x1.vco_switch_p_3/selb                     1.8
vdd                                        1.8
buf1_out                           2.60627e-09
net4                                4.9501e-09
net5                                4.9501e-09
net3                                4.9501e-09
buf16_out                           4.9501e-09
v1#branch                          1.52147e-11
vmeas_current_gnd#branch           1.30191e-05
vmeas_current_vdd#branch           1.30191e-05
v2#branch                         -1.30192e-05
vsel3#branch                                 0
vsel2#branch                                 0
vsel1#branch                                 0
vsel0#branch                                 0


No. of Data Rows : 7020

  Measurements for Transient Analysis


Error: measure  tvco_outside_while  (TRIG) : out of interval
 .meas tran tvco_outside_while trig v(out) val=0.5*1.8 rise=50 targ v(out) val=0.5*1.8 rise=51 failed!

Original line no.: 0, new internal line no.: 12460:
Undefined number [tvco_outside_while]
Original line no.: 0, new internal line no.: 12460:
Cannot compute substitute
fvco_outside_while  =   failed
supply_current_rms_outside_while=   1.05096e-04 from=  1.00000e-08 to=  4.00000e-08
ground_current_rms_outside_while=   3.97556e-05 from=  1.00000e-08 to=  4.00000e-08
vctrl_avg_outside_while=  0.000000e+00 from=  1.000000e-08 to=  2.000500e-08
vhigh_outside_while =  9.257659e-06 at=  1.011500e-08
vlow_outside_while  =  -9.242708e-06 at=  1.010500e-08
peak_to_peak_outside_while=  1.85004e-05
supply_current_rms  =   1.11437e-04 from=  0.00000e+00 to=  7.00000e-08

binary raw file "3-stage_cs-vco_tb_WITH_APPENDWRITE.raw"
Reset re-loads circuit ** sch_path: /home/darunix/gitsandboxes/vco/vco/xschem/3-stage_cs-vco_tb.sch

Circuit: ** sch_path: /home/darunix/gitsandboxes/vco/vco/xschem/3-stage_cs-vco_tb.sch

option SCALE: Scale is set to 1e-06 for instance and model parameters
Doing analysis at TEMP = 27.000000 and TNOM = 27.000000

Warning: v1: no DC value, transient time 0 value used

Initial Transient Solution
--------------------------

Node                                   Voltage
----                                   -------
x1.net7                                    1.8
x1.net6                            1.12909e-06
net1                                       1.8
net2                                         0
out                                6.80528e-09
x1.vgp                                 1.66135
vctrl                                        0
x1.net8                               0.952127
x1.ng3                             9.63187e-09
x1.net5                                    1.8
x1.ng0                             3.93259e-09
x1.vco_switch_n_v2_0/selb          2.69671e-09
sel0                                       1.8
x1.ng1                             3.93259e-09
x1.vco_switch_n_v2_1/selb          2.69671e-09
sel1                                       1.8
x1.ng2                             3.93259e-09
x1.vco_switch_n_v2_2/selb          2.69671e-09
sel2                                       1.8
x1.vco_switch_n_v2_3/selb                  1.8
sel3                                         0
x1.net3                               0.952128
x1.net2                                 1.7937
x1.net4                               0.102646
x1.pg3                                     1.8
x1.pg0                                 1.66135
x1.vco_switch_p_0/selb             2.69671e-09
x1.pg1                                 1.66135
x1.pg2                                 1.66135
x1.vco_switch_p_2/selb             2.69671e-09
x1.vco_switch_p_1/selb             2.69671e-09
x1.vco_switch_p_3/selb                     1.8
vdd                                        1.8
buf1_out                           2.60627e-09
net4                                4.9501e-09
net5                                4.9501e-09
net3                                4.9501e-09
buf16_out                           4.9501e-09
v1#branch                          1.52147e-11
vmeas_current_gnd#branch           1.30191e-05
vmeas_current_vdd#branch           1.30191e-05
v2#branch                         -1.30192e-05
vsel3#branch                                 0
vsel2#branch                                 0
vsel1#branch                                 0
vsel0#branch                                 0


No. of Data Rows : 7020

  Measurements for Transient Analysis


Error: measure  tvco_outside_while  (TRIG) : out of interval
 .meas tran tvco_outside_while trig v(out) val=0.5*1.8 rise=50 targ v(out) val=0.5*1.8 rise=51 failed!

Original line no.: 0, new internal line no.: 12460:
Undefined number [tvco_outside_while]
Original line no.: 0, new internal line no.: 12460:
Cannot compute substitute
fvco_outside_while  =   failed
supply_current_rms_outside_while=   6.34844e-05 from=  1.00000e-08 to=  4.00000e-08
ground_current_rms_outside_while=   2.93190e-05 from=  1.00000e-08 to=  4.00000e-08
vctrl_avg_outside_while=  1.000000e-01 from=  1.000000e-08 to=  2.000500e-08
vhigh_outside_while =  4.310862e-06 at=  1.148500e-08
vlow_outside_while  =  -4.296573e-06 at=  1.149500e-08
peak_to_peak_outside_while=  8.60743e-06
supply_current_rms  =   7.80736e-05 from=  0.00000e+00 to=  7.00000e-08

binary raw file "3-stage_cs-vco_tb_WITH_APPENDWRITE.raw"
Reset re-loads circuit ** sch_path: /home/darunix/gitsandboxes/vco/vco/xschem/3-stage_cs-vco_tb.sch

Circuit: ** sch_path: /home/darunix/gitsandboxes/vco/vco/xschem/3-stage_cs-vco_tb.sch

option SCALE: Scale is set to 1e-06 for instance and model parameters
Doing analysis at TEMP = 27.000000 and TNOM = 27.000000

Warning: v1: no DC value, transient time 0 value used

Initial Transient Solution
--------------------------

Node                                   Voltage
----                                   -------
x1.net7                                    1.8
x1.net6                            1.12909e-06
net1                                       1.8
net2                                         0
out                                6.80528e-09
x1.vgp                                 1.66135
vctrl                                        0
x1.net8                               0.952127
x1.ng3                             9.63187e-09
x1.net5                                    1.8
x1.ng0                             3.93259e-09
x1.vco_switch_n_v2_0/selb          2.69671e-09
sel0                                       1.8
x1.ng1                             3.93259e-09
x1.vco_switch_n_v2_1/selb          2.69671e-09
sel1                                       1.8
x1.ng2                             3.93259e-09
x1.vco_switch_n_v2_2/selb          2.69671e-09
sel2                                       1.8
x1.vco_switch_n_v2_3/selb                  1.8
sel3                                         0
x1.net3                               0.952128
x1.net2                                 1.7937
x1.net4                               0.102646
x1.pg3                                     1.8
x1.pg0                                 1.66135
x1.vco_switch_p_0/selb             2.69671e-09
x1.pg1                                 1.66135
x1.pg2                                 1.66135
x1.vco_switch_p_2/selb             2.69671e-09
x1.vco_switch_p_1/selb             2.69671e-09
x1.vco_switch_p_3/selb                     1.8
vdd                                        1.8
buf1_out                           2.60627e-09
net4                                4.9501e-09
net5                                4.9501e-09
net3                                4.9501e-09
buf16_out                           4.9501e-09
v1#branch                          1.52147e-11
vmeas_current_gnd#branch           1.30191e-05
vmeas_current_vdd#branch           1.30191e-05
v2#branch                         -1.30192e-05
vsel3#branch                                 0
vsel2#branch                                 0
vsel1#branch                                 0
vsel0#branch                                 0


No. of Data Rows : 7020

  Measurements for Transient Analysis


Error: measure  tvco_outside_while  (TRIG) : out of interval
 .meas tran tvco_outside_while trig v(out) val=0.5*1.8 rise=50 targ v(out) val=0.5*1.8 rise=51 failed!

Original line no.: 0, new internal line no.: 12460:
Undefined number [tvco_outside_while]
Original line no.: 0, new internal line no.: 12460:
Cannot compute substitute
fvco_outside_while  =   failed
supply_current_rms_outside_while=   1.74836e-05 from=  1.00000e-08 to=  4.00000e-08
ground_current_rms_outside_while=   1.41737e-05 from=  1.00000e-08 to=  4.00000e-08
vctrl_avg_outside_while=  2.000000e-01 from=  1.000000e-08 to=  2.000500e-08
vhigh_outside_while =  1.780522e-06 at=  1.001500e-08
vlow_outside_while  =  -1.775279e-06 at=  1.000500e-08
peak_to_peak_outside_while=  3.55580e-06
supply_current_rms  =   5.40982e-05 from=  0.00000e+00 to=  7.00000e-08

binary raw file "3-stage_cs-vco_tb_WITH_APPENDWRITE.raw"
Reset re-loads circuit ** sch_path: /home/darunix/gitsandboxes/vco/vco/xschem/3-stage_cs-vco_tb.sch

Circuit: ** sch_path: /home/darunix/gitsandboxes/vco/vco/xschem/3-stage_cs-vco_tb.sch

option SCALE: Scale is set to 1e-06 for instance and model parameters
Doing analysis at TEMP = 27.000000 and TNOM = 27.000000

Warning: v1: no DC value, transient time 0 value used

Initial Transient Solution
--------------------------

Node                                   Voltage
----                                   -------
x1.net7                                    1.8
x1.net6                            1.12909e-06
net1                                       1.8
net2                                         0
out                                6.80528e-09
x1.vgp                                 1.66135
vctrl                                        0
x1.net8                               0.952127
x1.ng3                             9.63187e-09
x1.net5                                    1.8
x1.ng0                             3.93259e-09
x1.vco_switch_n_v2_0/selb          2.69671e-09
sel0                                       1.8
x1.ng1                             3.93259e-09
x1.vco_switch_n_v2_1/selb          2.69671e-09
sel1                                       1.8
x1.ng2                             3.93259e-09
x1.vco_switch_n_v2_2/selb          2.69671e-09
sel2                                       1.8
x1.vco_switch_n_v2_3/selb                  1.8
sel3                                         0
x1.net3                               0.952128
x1.net2                                 1.7937
x1.net4                               0.102646
x1.pg3                                     1.8
x1.pg0                                 1.66135
x1.vco_switch_p_0/selb             2.69671e-09
x1.pg1                                 1.66135
x1.pg2                                 1.66135
x1.vco_switch_p_2/selb             2.69671e-09
x1.vco_switch_p_1/selb             2.69671e-09
x1.vco_switch_p_3/selb                     1.8
vdd                                        1.8
buf1_out                           2.60627e-09
net4                                4.9501e-09
net5                                4.9501e-09
net3                                4.9501e-09
buf16_out                           4.9501e-09
v1#branch                          1.52147e-11
vmeas_current_gnd#branch           1.30191e-05
vmeas_current_vdd#branch           1.30191e-05
v2#branch                         -1.30192e-05
vsel3#branch                                 0
vsel2#branch                                 0
vsel1#branch                                 0
vsel0#branch                                 0


No. of Data Rows : 7020

  Measurements for Transient Analysis


Error: measure  tvco_outside_while  (TRIG) : out of interval
 .meas tran tvco_outside_while trig v(out) val=0.5*1.8 rise=50 targ v(out) val=0.5*1.8 rise=51 failed!

Original line no.: 0, new internal line no.: 12460:
Undefined number [tvco_outside_while]
Original line no.: 0, new internal line no.: 12460:
Cannot compute substitute
fvco_outside_while  =   failed
supply_current_rms_outside_while=   2.02051e-05 from=  1.00000e-08 to=  4.00000e-08
ground_current_rms_outside_while=   7.78363e-05 from=  1.00000e-08 to=  4.00000e-08
vctrl_avg_outside_while=  3.000000e-01 from=  1.000000e-08 to=  2.000500e-08
vhigh_outside_while =  1.121029e-05 at=  1.000500e-08
vlow_outside_while  =  -1.118614e-05 at=  1.001500e-08
peak_to_peak_outside_while=  2.23964e-05
supply_current_rms  =   5.52344e-05 from=  0.00000e+00 to=  7.00000e-08

binary raw file "3-stage_cs-vco_tb_WITH_APPENDWRITE.raw"
Reset re-loads circuit ** sch_path: /home/darunix/gitsandboxes/vco/vco/xschem/3-stage_cs-vco_tb.sch

Circuit: ** sch_path: /home/darunix/gitsandboxes/vco/vco/xschem/3-stage_cs-vco_tb.sch

option SCALE: Scale is set to 1e-06 for instance and model parameters
Doing analysis at TEMP = 27.000000 and TNOM = 27.000000

Warning: v1: no DC value, transient time 0 value used

Initial Transient Solution
--------------------------

Node                                   Voltage
----                                   -------
x1.net7                                    1.8
x1.net6                            1.12909e-06
net1                                       1.8
net2                                         0
out                                6.80528e-09
x1.vgp                                 1.66135
vctrl                                        0
x1.net8                               0.952127
x1.ng3                             9.63187e-09
x1.net5                                    1.8
x1.ng0                             3.93259e-09
x1.vco_switch_n_v2_0/selb          2.69671e-09
sel0                                       1.8
x1.ng1                             3.93259e-09
x1.vco_switch_n_v2_1/selb          2.69671e-09
sel1                                       1.8
x1.ng2                             3.93259e-09
x1.vco_switch_n_v2_2/selb          2.69671e-09
sel2                                       1.8
x1.vco_switch_n_v2_3/selb                  1.8
sel3                                         0
x1.net3                               0.952128
x1.net2                                 1.7937
x1.net4                               0.102646
x1.pg3                                     1.8
x1.pg0                                 1.66135
x1.vco_switch_p_0/selb             2.69671e-09
x1.pg1                                 1.66135
x1.pg2                                 1.66135
x1.vco_switch_p_2/selb             2.69671e-09
x1.vco_switch_p_1/selb             2.69671e-09
x1.vco_switch_p_3/selb                     1.8
vdd                                        1.8
buf1_out                           2.60627e-09
net4                                4.9501e-09
net5                                4.9501e-09
net3                                4.9501e-09
buf16_out                           4.9501e-09
v1#branch                          1.52147e-11
vmeas_current_gnd#branch           1.30191e-05
vmeas_current_vdd#branch           1.30191e-05
v2#branch                         -1.30192e-05
vsel3#branch                                 0
vsel2#branch                                 0
vsel1#branch                                 0
vsel0#branch                                 0


No. of Data Rows : 7020

  Measurements for Transient Analysis


Error: measure  tvco_outside_while  (TRIG) : out of interval
 .meas tran tvco_outside_while trig v(out) val=0.5*1.8 rise=50 targ v(out) val=0.5*1.8 rise=51 failed!

Original line no.: 0, new internal line no.: 12460:
Undefined number [tvco_outside_while]
Original line no.: 0, new internal line no.: 12460:
Cannot compute substitute
fvco_outside_while  =   failed
supply_current_rms_outside_while=   1.43381e-05 from=  1.00000e-08 to=  4.00000e-08
ground_current_rms_outside_while=   5.08902e-05 from=  1.00000e-08 to=  4.00000e-08
vctrl_avg_outside_while=  4.000000e-01 from=  1.000000e-08 to=  2.000500e-08
vhigh_outside_while =  6.177804e-07 at=  1.466500e-08
vlow_outside_while  =  -6.040500e-07 at=  1.467500e-08
peak_to_peak_outside_while=  1.22183e-06
supply_current_rms  =   5.38192e-05 from=  0.00000e+00 to=  7.00000e-08

binary raw file "3-stage_cs-vco_tb_WITH_APPENDWRITE.raw"
Reset re-loads circuit ** sch_path: /home/darunix/gitsandboxes/vco/vco/xschem/3-stage_cs-vco_tb.sch

Circuit: ** sch_path: /home/darunix/gitsandboxes/vco/vco/xschem/3-stage_cs-vco_tb.sch

option SCALE: Scale is set to 1e-06 for instance and model parameters
Doing analysis at TEMP = 27.000000 and TNOM = 27.000000

Warning: v1: no DC value, transient time 0 value used

Initial Transient Solution
--------------------------

Node                                   Voltage
----                                   -------
x1.net7                                    1.8
x1.net6                            1.12909e-06
net1                                       1.8
net2                                         0
out                                6.80528e-09
x1.vgp                                 1.66135
vctrl                                        0
x1.net8                               0.952127
x1.ng3                             9.63187e-09
x1.net5                                    1.8
x1.ng0                             3.93259e-09
x1.vco_switch_n_v2_0/selb          2.69671e-09
sel0                                       1.8
x1.ng1                             3.93259e-09
x1.vco_switch_n_v2_1/selb          2.69671e-09
sel1                                       1.8
x1.ng2                             3.93259e-09
x1.vco_switch_n_v2_2/selb          2.69671e-09
sel2                                       1.8
x1.vco_switch_n_v2_3/selb                  1.8
sel3                                         0
x1.net3                               0.952128
x1.net2                                 1.7937
x1.net4                               0.102646
x1.pg3                                     1.8
x1.pg0                                 1.66135
x1.vco_switch_p_0/selb             2.69671e-09
x1.pg1                                 1.66135
x1.pg2                                 1.66135
x1.vco_switch_p_2/selb             2.69671e-09
x1.vco_switch_p_1/selb             2.69671e-09
x1.vco_switch_p_3/selb                     1.8
vdd                                        1.8
buf1_out                           2.60627e-09
net4                                4.9501e-09
net5                                4.9501e-09
net3                                4.9501e-09
buf16_out                           4.9501e-09
v1#branch                          1.52147e-11
vmeas_current_gnd#branch           1.30191e-05
vmeas_current_vdd#branch           1.30191e-05
v2#branch                         -1.30192e-05
vsel3#branch                                 0
vsel2#branch                                 0
vsel1#branch                                 0
vsel0#branch                                 0


No. of Data Rows : 7020

  Measurements for Transient Analysis


Error: measure  tvco_outside_while  (TRIG) : out of interval
 .meas tran tvco_outside_while trig v(out) val=0.5*1.8 rise=50 targ v(out) val=0.5*1.8 rise=51 failed!

Original line no.: 0, new internal line no.: 12460:
Undefined number [tvco_outside_while]
Original line no.: 0, new internal line no.: 12460:
Cannot compute substitute
fvco_outside_while  =   failed
supply_current_rms_outside_while=   4.39587e-05 from=  1.00000e-08 to=  4.00000e-08
ground_current_rms_outside_while=   5.41191e-05 from=  1.00000e-08 to=  4.00000e-08
vctrl_avg_outside_while=  5.000000e-01 from=  1.000000e-08 to=  2.000500e-08
vhigh_outside_while =  1.733434e+00 at=  1.133500e-08
vlow_outside_while  =  -7.912534e-02 at=  1.125500e-08
peak_to_peak_outside_while=  1.81256e+00
supply_current_rms  =   6.94973e-05 from=  0.00000e+00 to=  7.00000e-08

binary raw file "3-stage_cs-vco_tb_WITH_APPENDWRITE.raw"
Reset re-loads circuit ** sch_path: /home/darunix/gitsandboxes/vco/vco/xschem/3-stage_cs-vco_tb.sch

Circuit: ** sch_path: /home/darunix/gitsandboxes/vco/vco/xschem/3-stage_cs-vco_tb.sch

option SCALE: Scale is set to 1e-06 for instance and model parameters
Doing analysis at TEMP = 27.000000 and TNOM = 27.000000

Warning: v1: no DC value, transient time 0 value used

Initial Transient Solution
--------------------------

Node                                   Voltage
----                                   -------
x1.net7                                    1.8
x1.net6                            1.12909e-06
net1                                       1.8
net2                                         0
out                                6.80528e-09
x1.vgp                                 1.66135
vctrl                                        0
x1.net8                               0.952127
x1.ng3                             9.63187e-09
x1.net5                                    1.8
x1.ng0                             3.93259e-09
x1.vco_switch_n_v2_0/selb          2.69671e-09
sel0                                       1.8
x1.ng1                             3.93259e-09
x1.vco_switch_n_v2_1/selb          2.69671e-09
sel1                                       1.8
x1.ng2                             3.93259e-09
x1.vco_switch_n_v2_2/selb          2.69671e-09
sel2                                       1.8
x1.vco_switch_n_v2_3/selb                  1.8
sel3                                         0
x1.net3                               0.952128
x1.net2                                 1.7937
x1.net4                               0.102646
x1.pg3                                     1.8
x1.pg0                                 1.66135
x1.vco_switch_p_0/selb             2.69671e-09
x1.pg1                                 1.66135
x1.pg2                                 1.66135
x1.vco_switch_p_2/selb             2.69671e-09
x1.vco_switch_p_1/selb             2.69671e-09
x1.vco_switch_p_3/selb                     1.8
vdd                                        1.8
buf1_out                           2.60627e-09
net4                                4.9501e-09
net5                                4.9501e-09
net3                                4.9501e-09
buf16_out                           4.9501e-09
v1#branch                          1.52147e-11
vmeas_current_gnd#branch           1.30191e-05
vmeas_current_vdd#branch           1.30191e-05
v2#branch                         -1.30192e-05
vsel3#branch                                 0
vsel2#branch                                 0
vsel1#branch                                 0
vsel0#branch                                 0


No. of Data Rows : 7020

  Measurements for Transient Analysis

tvco_outside_while  =  1.599098e-09 targ=  6.338998e-08 trig=  6.179088e-08
fvco_outside_while  =  6.25352e+08
supply_current_rms_outside_while=   2.20695e-04 from=  1.00000e-08 to=  4.00000e-08
ground_current_rms_outside_while=   1.44746e-04 from=  1.00000e-08 to=  4.00000e-08
vctrl_avg_outside_while=  6.000000e-01 from=  1.000000e-08 to=  2.000500e-08
vhigh_outside_while =  1.929077e+00 at=  1.297500e-08
vlow_outside_while  =  -8.747969e-02 at=  1.331500e-08
peak_to_peak_outside_while=  2.01656e+00
supply_current_rms  =   2.73831e-04 from=  0.00000e+00 to=  7.00000e-08

binary raw file "3-stage_cs-vco_tb_WITH_APPENDWRITE.raw"
Reset re-loads circuit ** sch_path: /home/darunix/gitsandboxes/vco/vco/xschem/3-stage_cs-vco_tb.sch

Circuit: ** sch_path: /home/darunix/gitsandboxes/vco/vco/xschem/3-stage_cs-vco_tb.sch

option SCALE: Scale is set to 1e-06 for instance and model parameters
Doing analysis at TEMP = 27.000000 and TNOM = 27.000000

Warning: v1: no DC value, transient time 0 value used

Initial Transient Solution
--------------------------

Node                                   Voltage
----                                   -------
x1.net7                                    1.8
x1.net6                            1.12909e-06
net1                                       1.8
net2                                         0
out                                6.80528e-09
x1.vgp                                 1.66135
vctrl                                        0
x1.net8                               0.952127
x1.ng3                             9.63187e-09
x1.net5                                    1.8
x1.ng0                             3.93259e-09
x1.vco_switch_n_v2_0/selb          2.69671e-09
sel0                                       1.8
x1.ng1                             3.93259e-09
x1.vco_switch_n_v2_1/selb          2.69671e-09
sel1                                       1.8
x1.ng2                             3.93259e-09
x1.vco_switch_n_v2_2/selb          2.69671e-09
sel2                                       1.8
x1.vco_switch_n_v2_3/selb                  1.8
sel3                                         0
x1.net3                               0.952128
x1.net2                                 1.7937
x1.net4                               0.102646
x1.pg3                                     1.8
x1.pg0                                 1.66135
x1.vco_switch_p_0/selb             2.69671e-09
x1.pg1                                 1.66135
x1.pg2                                 1.66135
x1.vco_switch_p_2/selb             2.69671e-09
x1.vco_switch_p_1/selb             2.69671e-09
x1.vco_switch_p_3/selb                     1.8
vdd                                        1.8
buf1_out                           2.60627e-09
net4                                4.9501e-09
net5                                4.9501e-09
net3                                4.9501e-09
buf16_out                           4.9501e-09
v1#branch                          1.52147e-11
vmeas_current_gnd#branch           1.30191e-05
vmeas_current_vdd#branch           1.30191e-05
v2#branch                         -1.30192e-05
vsel3#branch                                 0
vsel2#branch                                 0
vsel1#branch                                 0
vsel0#branch                                 0


No. of Data Rows : 7020

  Measurements for Transient Analysis

tvco_outside_while  =  5.087590e-10 targ=  2.726572e-08 trig=  2.675696e-08
fvco_outside_while  =  1.96557e+09
supply_current_rms_outside_while=   2.49251e-04 from=  1.00000e-08 to=  4.00000e-08
ground_current_rms_outside_while=   2.64062e-04 from=  1.00000e-08 to=  4.00000e-08
vctrl_avg_outside_while=  7.000000e-01 from=  1.000000e-08 to=  2.000500e-08
vhigh_outside_while =  1.930159e+00 at=  1.440500e-08
vlow_outside_while  =  -7.382856e-02 at=  1.401500e-08
peak_to_peak_outside_while=  2.00399e+00
supply_current_rms  =   2.46458e-04 from=  0.00000e+00 to=  7.00000e-08

binary raw file "3-stage_cs-vco_tb_WITH_APPENDWRITE.raw"
Reset re-loads circuit ** sch_path: /home/darunix/gitsandboxes/vco/vco/xschem/3-stage_cs-vco_tb.sch

Circuit: ** sch_path: /home/darunix/gitsandboxes/vco/vco/xschem/3-stage_cs-vco_tb.sch

option SCALE: Scale is set to 1e-06 for instance and model parameters
Doing analysis at TEMP = 27.000000 and TNOM = 27.000000

Warning: v1: no DC value, transient time 0 value used

Initial Transient Solution
--------------------------

Node                                   Voltage
----                                   -------
x1.net7                                    1.8
x1.net6                            1.12909e-06
net1                                       1.8
net2                                         0
out                                6.80528e-09
x1.vgp                                 1.66135
vctrl                                        0
x1.net8                               0.952127
x1.ng3                             9.63187e-09
x1.net5                                    1.8
x1.ng0                             3.93259e-09
x1.vco_switch_n_v2_0/selb          2.69671e-09
sel0                                       1.8
x1.ng1                             3.93259e-09
x1.vco_switch_n_v2_1/selb          2.69671e-09
sel1                                       1.8
x1.ng2                             3.93259e-09
x1.vco_switch_n_v2_2/selb          2.69671e-09
sel2                                       1.8
x1.vco_switch_n_v2_3/selb                  1.8
sel3                                         0
x1.net3                               0.952128
x1.net2                                 1.7937
x1.net4                               0.102646
x1.pg3                                     1.8
x1.pg0                                 1.66135
x1.vco_switch_p_0/selb             2.69671e-09
x1.pg1                                 1.66135
x1.pg2                                 1.66135
x1.vco_switch_p_2/selb             2.69671e-09
x1.vco_switch_p_1/selb             2.69671e-09
x1.vco_switch_p_3/selb                     1.8
vdd                                        1.8
buf1_out                           2.60627e-09
net4                                4.9501e-09
net5                                4.9501e-09
net3                                4.9501e-09
buf16_out                           4.9501e-09
v1#branch                          1.52147e-11
vmeas_current_gnd#branch           1.30191e-05
vmeas_current_vdd#branch           1.30191e-05
v2#branch                         -1.30192e-05
vsel3#branch                                 0
vsel2#branch                                 0
vsel1#branch                                 0
vsel0#branch                                 0


No. of Data Rows : 7020

  Measurements for Transient Analysis

tvco_outside_while  =  2.940897e-10 targ=  1.701698e-08 trig=  1.672289e-08
fvco_outside_while  =  3.40032e+09
supply_current_rms_outside_while=   4.12312e-04 from=  1.00000e-08 to=  4.00000e-08
ground_current_rms_outside_while=   4.01262e-04 from=  1.00000e-08 to=  4.00000e-08
vctrl_avg_outside_while=  8.000000e-01 from=  1.000000e-08 to=  2.000500e-08
vhigh_outside_while =  1.929062e+00 at=  1.860500e-08
vlow_outside_while  =  -8.479566e-02 at=  1.875500e-08
peak_to_peak_outside_while=  2.01386e+00
supply_current_rms  =   4.03797e-04 from=  0.00000e+00 to=  7.00000e-08

binary raw file "3-stage_cs-vco_tb_WITH_APPENDWRITE.raw"
Reset re-loads circuit ** sch_path: /home/darunix/gitsandboxes/vco/vco/xschem/3-stage_cs-vco_tb.sch

Circuit: ** sch_path: /home/darunix/gitsandboxes/vco/vco/xschem/3-stage_cs-vco_tb.sch

option SCALE: Scale is set to 1e-06 for instance and model parameters
Doing analysis at TEMP = 27.000000 and TNOM = 27.000000

Warning: v1: no DC value, transient time 0 value used

Initial Transient Solution
--------------------------

Node                                   Voltage
----                                   -------
x1.net7                                    1.8
x1.net6                            1.12909e-06
net1                                       1.8
net2                                         0
out                                6.80528e-09
x1.vgp                                 1.66135
vctrl                                        0
x1.net8                               0.952127
x1.ng3                             9.63187e-09
x1.net5                                    1.8
x1.ng0                             3.93259e-09
x1.vco_switch_n_v2_0/selb          2.69671e-09
sel0                                       1.8
x1.ng1                             3.93259e-09
x1.vco_switch_n_v2_1/selb          2.69671e-09
sel1                                       1.8
x1.ng2                             3.93259e-09
x1.vco_switch_n_v2_2/selb          2.69671e-09
sel2                                       1.8
x1.vco_switch_n_v2_3/selb                  1.8
sel3                                         0
x1.net3                               0.952128
x1.net2                                 1.7937
x1.net4                               0.102646
x1.pg3                                     1.8
x1.pg0                                 1.66135
x1.vco_switch_p_0/selb             2.69671e-09
x1.pg1                                 1.66135
x1.pg2                                 1.66135
x1.vco_switch_p_2/selb             2.69671e-09
x1.vco_switch_p_1/selb             2.69671e-09
x1.vco_switch_p_3/selb                     1.8
vdd                                        1.8
buf1_out                           2.60627e-09
net4                                4.9501e-09
net5                                4.9501e-09
net3                                4.9501e-09
buf16_out                           4.9501e-09
v1#branch                          1.52147e-11
vmeas_current_gnd#branch           1.30191e-05
vmeas_current_vdd#branch           1.30191e-05
v2#branch                         -1.30192e-05
vsel3#branch                                 0
vsel2#branch                                 0
vsel1#branch                                 0
vsel0#branch                                 0


No. of Data Rows : 7020

  Measurements for Transient Analysis

tvco_outside_while  =  2.687029e-10 targ=  1.556958e-08 trig=  1.530088e-08
fvco_outside_while  =  3.72158e+09
supply_current_rms_outside_while=   4.49411e-04 from=  1.00000e-08 to=  4.00000e-08
ground_current_rms_outside_while=   4.45485e-04 from=  1.00000e-08 to=  4.00000e-08
vctrl_avg_outside_while=  9.000000e-01 from=  1.000000e-08 to=  2.000500e-08
vhigh_outside_while =  1.924993e+00 at=  1.378500e-08
vlow_outside_while  =  -8.466285e-02 at=  1.930500e-08
peak_to_peak_outside_while=  2.00966e+00
supply_current_rms  =   4.42583e-04 from=  0.00000e+00 to=  7.00000e-08

binary raw file "3-stage_cs-vco_tb_WITH_APPENDWRITE.raw"
Reset re-loads circuit ** sch_path: /home/darunix/gitsandboxes/vco/vco/xschem/3-stage_cs-vco_tb.sch

Circuit: ** sch_path: /home/darunix/gitsandboxes/vco/vco/xschem/3-stage_cs-vco_tb.sch

option SCALE: Scale is set to 1e-06 for instance and model parameters
Doing analysis at TEMP = 27.000000 and TNOM = 27.000000

Warning: v1: no DC value, transient time 0 value used

Initial Transient Solution
--------------------------

Node                                   Voltage
----                                   -------
x1.net7                                    1.8
x1.net6                            1.12909e-06
net1                                       1.8
net2                                         0
out                                6.80528e-09
x1.vgp                                 1.66135
vctrl                                        0
x1.net8                               0.952127
x1.ng3                             9.63187e-09
x1.net5                                    1.8
x1.ng0                             3.93259e-09
x1.vco_switch_n_v2_0/selb          2.69671e-09
sel0                                       1.8
x1.ng1                             3.93259e-09
x1.vco_switch_n_v2_1/selb          2.69671e-09
sel1                                       1.8
x1.ng2                             3.93259e-09
x1.vco_switch_n_v2_2/selb          2.69671e-09
sel2                                       1.8
x1.vco_switch_n_v2_3/selb                  1.8
sel3                                         0
x1.net3                               0.952128
x1.net2                                 1.7937
x1.net4                               0.102646
x1.pg3                                     1.8
x1.pg0                                 1.66135
x1.vco_switch_p_0/selb             2.69671e-09
x1.pg1                                 1.66135
x1.pg2                                 1.66135
x1.vco_switch_p_2/selb             2.69671e-09
x1.vco_switch_p_1/selb             2.69671e-09
x1.vco_switch_p_3/selb                     1.8
vdd                                        1.8
buf1_out                           2.60627e-09
net4                                4.9501e-09
net5                                4.9501e-09
net3                                4.9501e-09
buf16_out                           4.9501e-09
v1#branch                          1.52147e-11
vmeas_current_gnd#branch           1.30191e-05
vmeas_current_vdd#branch           1.30191e-05
v2#branch                         -1.30192e-05
vsel3#branch                                 0
vsel2#branch                                 0
vsel1#branch                                 0
vsel0#branch                                 0


No. of Data Rows : 7020

  Measurements for Transient Analysis

tvco_outside_while  =  2.584359e-10 targ=  1.500809e-08 trig=  1.474966e-08
fvco_outside_while  =  3.86943e+09
supply_current_rms_outside_while=   4.83872e-04 from=  1.00000e-08 to=  4.00000e-08
ground_current_rms_outside_while=   4.81254e-04 from=  1.00000e-08 to=  4.00000e-08
vctrl_avg_outside_while=  1.000000e+00 from=  1.000000e-08 to=  2.000500e-08
vhigh_outside_while =  1.920795e+00 at=  1.044500e-08
vlow_outside_while  =  -8.491764e-02 at=  1.756500e-08
peak_to_peak_outside_while=  2.00571e+00
supply_current_rms  =   4.76562e-04 from=  0.00000e+00 to=  7.00000e-08

binary raw file "3-stage_cs-vco_tb_WITH_APPENDWRITE.raw"
Reset re-loads circuit ** sch_path: /home/darunix/gitsandboxes/vco/vco/xschem/3-stage_cs-vco_tb.sch

Circuit: ** sch_path: /home/darunix/gitsandboxes/vco/vco/xschem/3-stage_cs-vco_tb.sch

option SCALE: Scale is set to 1e-06 for instance and model parameters
Doing analysis at TEMP = 27.000000 and TNOM = 27.000000

Warning: v1: no DC value, transient time 0 value used

Initial Transient Solution
--------------------------

Node                                   Voltage
----                                   -------
x1.net7                                    1.8
x1.net6                            1.12909e-06
net1                                       1.8
net2                                         0
out                                6.80528e-09
x1.vgp                                 1.66135
vctrl                                        0
x1.net8                               0.952127
x1.ng3                             9.63187e-09
x1.net5                                    1.8
x1.ng0                             3.93259e-09
x1.vco_switch_n_v2_0/selb          2.69671e-09
sel0                                       1.8
x1.ng1                             3.93259e-09
x1.vco_switch_n_v2_1/selb          2.69671e-09
sel1                                       1.8
x1.ng2                             3.93259e-09
x1.vco_switch_n_v2_2/selb          2.69671e-09
sel2                                       1.8
x1.vco_switch_n_v2_3/selb                  1.8
sel3                                         0
x1.net3                               0.952128
x1.net2                                 1.7937
x1.net4                               0.102646
x1.pg3                                     1.8
x1.pg0                                 1.66135
x1.vco_switch_p_0/selb             2.69671e-09
x1.pg1                                 1.66135
x1.pg2                                 1.66135
x1.vco_switch_p_2/selb             2.69671e-09
x1.vco_switch_p_1/selb             2.69671e-09
x1.vco_switch_p_3/selb                     1.8
vdd                                        1.8
buf1_out                           2.60627e-09
net4                                4.9501e-09
net5                                4.9501e-09
net3                                4.9501e-09
buf16_out                           4.9501e-09
v1#branch                          1.52147e-11
vmeas_current_gnd#branch           1.30191e-05
vmeas_current_vdd#branch           1.30191e-05
v2#branch                         -1.30192e-05
vsel3#branch                                 0
vsel2#branch                                 0
vsel1#branch                                 0
vsel0#branch                                 0


No. of Data Rows : 7020

  Measurements for Transient Analysis

tvco_outside_while  =  2.532518e-10 targ=  1.475130e-08 trig=  1.449805e-08
fvco_outside_while  =  3.94864e+09
supply_current_rms_outside_while=   5.11135e-04 from=  1.00000e-08 to=  4.00000e-08
ground_current_rms_outside_while=   5.09966e-04 from=  1.00000e-08 to=  4.00000e-08
vctrl_avg_outside_while=  1.100000e+00 from=  1.000000e-08 to=  2.000500e-08
vhigh_outside_while =  1.916657e+00 at=  1.229500e-08
vlow_outside_while  =  -8.511673e-02 at=  1.041500e-08
peak_to_peak_outside_while=  2.00177e+00
supply_current_rms  =   5.03194e-04 from=  0.00000e+00 to=  7.00000e-08

binary raw file "3-stage_cs-vco_tb_WITH_APPENDWRITE.raw"
Reset re-loads circuit ** sch_path: /home/darunix/gitsandboxes/vco/vco/xschem/3-stage_cs-vco_tb.sch

Circuit: ** sch_path: /home/darunix/gitsandboxes/vco/vco/xschem/3-stage_cs-vco_tb.sch

option SCALE: Scale is set to 1e-06 for instance and model parameters
Doing analysis at TEMP = 27.000000 and TNOM = 27.000000

Warning: v1: no DC value, transient time 0 value used

Initial Transient Solution
--------------------------

Node                                   Voltage
----                                   -------
x1.net7                                    1.8
x1.net6                            1.12909e-06
net1                                       1.8
net2                                         0
out                                6.80528e-09
x1.vgp                                 1.66135
vctrl                                        0
x1.net8                               0.952127
x1.ng3                             9.63187e-09
x1.net5                                    1.8
x1.ng0                             3.93259e-09
x1.vco_switch_n_v2_0/selb          2.69671e-09
sel0                                       1.8
x1.ng1                             3.93259e-09
x1.vco_switch_n_v2_1/selb          2.69671e-09
sel1                                       1.8
x1.ng2                             3.93259e-09
x1.vco_switch_n_v2_2/selb          2.69671e-09
sel2                                       1.8
x1.vco_switch_n_v2_3/selb                  1.8
sel3                                         0
x1.net3                               0.952128
x1.net2                                 1.7937
x1.net4                               0.102646
x1.pg3                                     1.8
x1.pg0                                 1.66135
x1.vco_switch_p_0/selb             2.69671e-09
x1.pg1                                 1.66135
x1.pg2                                 1.66135
x1.vco_switch_p_2/selb             2.69671e-09
x1.vco_switch_p_1/selb             2.69671e-09
x1.vco_switch_p_3/selb                     1.8
vdd                                        1.8
buf1_out                           2.60627e-09
net4                                4.9501e-09
net5                                4.9501e-09
net3                                4.9501e-09
buf16_out                           4.9501e-09
v1#branch                          1.52147e-11
vmeas_current_gnd#branch           1.30191e-05
vmeas_current_vdd#branch           1.30191e-05
v2#branch                         -1.30192e-05
vsel3#branch                                 0
vsel2#branch                                 0
vsel1#branch                                 0
vsel0#branch                                 0


No. of Data Rows : 7020

  Measurements for Transient Analysis

tvco_outside_while  =  2.515579e-10 targ=  1.461447e-08 trig=  1.436291e-08
fvco_outside_while  =  3.97523e+09
supply_current_rms_outside_while=   5.30497e-04 from=  1.00000e-08 to=  4.00000e-08
ground_current_rms_outside_while=   5.29268e-04 from=  1.00000e-08 to=  4.00000e-08
vctrl_avg_outside_while=  1.200000e+00 from=  1.000000e-08 to=  2.000500e-08
vhigh_outside_while =  1.913597e+00 at=  1.946500e-08
vlow_outside_while  =  -8.518360e-02 at=  1.383500e-08
peak_to_peak_outside_while=  1.99878e+00
supply_current_rms  =   5.22354e-04 from=  0.00000e+00 to=  7.00000e-08

binary raw file "3-stage_cs-vco_tb_WITH_APPENDWRITE.raw"
Reset re-loads circuit ** sch_path: /home/darunix/gitsandboxes/vco/vco/xschem/3-stage_cs-vco_tb.sch

Circuit: ** sch_path: /home/darunix/gitsandboxes/vco/vco/xschem/3-stage_cs-vco_tb.sch

option SCALE: Scale is set to 1e-06 for instance and model parameters
Doing analysis at TEMP = 27.000000 and TNOM = 27.000000

Warning: v1: no DC value, transient time 0 value used

Initial Transient Solution
--------------------------

Node                                   Voltage
----                                   -------
x1.net7                                    1.8
x1.net6                            1.12909e-06
net1                                       1.8
net2                                         0
out                                6.80528e-09
x1.vgp                                 1.66135
vctrl                                        0
x1.net8                               0.952127
x1.ng3                             9.63187e-09
x1.net5                                    1.8
x1.ng0                             3.93259e-09
x1.vco_switch_n_v2_0/selb          2.69671e-09
sel0                                       1.8
x1.ng1                             3.93259e-09
x1.vco_switch_n_v2_1/selb          2.69671e-09
sel1                                       1.8
x1.ng2                             3.93259e-09
x1.vco_switch_n_v2_2/selb          2.69671e-09
sel2                                       1.8
x1.vco_switch_n_v2_3/selb                  1.8
sel3                                         0
x1.net3                               0.952128
x1.net2                                 1.7937
x1.net4                               0.102646
x1.pg3                                     1.8
x1.pg0                                 1.66135
x1.vco_switch_p_0/selb             2.69671e-09
x1.pg1                                 1.66135
x1.pg2                                 1.66135
x1.vco_switch_p_2/selb             2.69671e-09
x1.vco_switch_p_1/selb             2.69671e-09
x1.vco_switch_p_3/selb                     1.8
vdd                                        1.8
buf1_out                           2.60627e-09
net4                                4.9501e-09
net5                                4.9501e-09
net3                                4.9501e-09
buf16_out                           4.9501e-09
v1#branch                          1.52147e-11
vmeas_current_gnd#branch           1.30191e-05
vmeas_current_vdd#branch           1.30191e-05
v2#branch                         -1.30192e-05
vsel3#branch                                 0
vsel2#branch                                 0
vsel1#branch                                 0
vsel0#branch                                 0


No. of Data Rows : 7020

  Measurements for Transient Analysis

tvco_outside_while  =  2.500098e-10 targ=  1.453852e-08 trig=  1.428851e-08
fvco_outside_while  =  3.99984e+09
supply_current_rms_outside_while=   5.41747e-04 from=  1.00000e-08 to=  4.00000e-08
ground_current_rms_outside_while=   5.40603e-04 from=  1.00000e-08 to=  4.00000e-08
vctrl_avg_outside_while=  1.300000e+00 from=  1.000000e-08 to=  2.000500e-08
vhigh_outside_while =  1.911785e+00 at=  1.986500e-08
vlow_outside_while  =  -8.340232e-02 at=  1.976500e-08
peak_to_peak_outside_while=  1.99519e+00
supply_current_rms  =   5.33607e-04 from=  0.00000e+00 to=  7.00000e-08

binary raw file "3-stage_cs-vco_tb_WITH_APPENDWRITE.raw"
Reset re-loads circuit ** sch_path: /home/darunix/gitsandboxes/vco/vco/xschem/3-stage_cs-vco_tb.sch

Circuit: ** sch_path: /home/darunix/gitsandboxes/vco/vco/xschem/3-stage_cs-vco_tb.sch

option SCALE: Scale is set to 1e-06 for instance and model parameters
Doing analysis at TEMP = 27.000000 and TNOM = 27.000000

Warning: v1: no DC value, transient time 0 value used

Initial Transient Solution
--------------------------

Node                                   Voltage
----                                   -------
x1.net7                                    1.8
x1.net6                            1.12909e-06
net1                                       1.8
net2                                         0
out                                6.80528e-09
x1.vgp                                 1.66135
vctrl                                        0
x1.net8                               0.952127
x1.ng3                             9.63187e-09
x1.net5                                    1.8
x1.ng0                             3.93259e-09
x1.vco_switch_n_v2_0/selb          2.69671e-09
sel0                                       1.8
x1.ng1                             3.93259e-09
x1.vco_switch_n_v2_1/selb          2.69671e-09
sel1                                       1.8
x1.ng2                             3.93259e-09
x1.vco_switch_n_v2_2/selb          2.69671e-09
sel2                                       1.8
x1.vco_switch_n_v2_3/selb                  1.8
sel3                                         0
x1.net3                               0.952128
x1.net2                                 1.7937
x1.net4                               0.102646
x1.pg3                                     1.8
x1.pg0                                 1.66135
x1.vco_switch_p_0/selb             2.69671e-09
x1.pg1                                 1.66135
x1.pg2                                 1.66135
x1.vco_switch_p_2/selb             2.69671e-09
x1.vco_switch_p_1/selb             2.69671e-09
x1.vco_switch_p_3/selb                     1.8
vdd                                        1.8
buf1_out                           2.60627e-09
net4                                4.9501e-09
net5                                4.9501e-09
net3                                4.9501e-09
buf16_out                           4.9501e-09
v1#branch                          1.52147e-11
vmeas_current_gnd#branch           1.30191e-05
vmeas_current_vdd#branch           1.30191e-05
v2#branch                         -1.30192e-05
vsel3#branch                                 0
vsel2#branch                                 0
vsel1#branch                                 0
vsel0#branch                                 0


No. of Data Rows : 7020

  Measurements for Transient Analysis

tvco_outside_while  =  2.492970e-10 targ=  1.448940e-08 trig=  1.424010e-08
fvco_outside_while  =  4.01128e+09
supply_current_rms_outside_while=   5.48679e-04 from=  1.00000e-08 to=  4.00000e-08
ground_current_rms_outside_while=   5.47449e-04 from=  1.00000e-08 to=  4.00000e-08
vctrl_avg_outside_while=  1.400000e+00 from=  1.000000e-08 to=  2.000500e-08
vhigh_outside_while =  1.911639e+00 at=  1.805500e-08
vlow_outside_while  =  -8.504470e-02 at=  1.022500e-08
peak_to_peak_outside_while=  1.99668e+00
supply_current_rms  =   5.40630e-04 from=  0.00000e+00 to=  7.00000e-08

binary raw file "3-stage_cs-vco_tb_WITH_APPENDWRITE.raw"
Reset re-loads circuit ** sch_path: /home/darunix/gitsandboxes/vco/vco/xschem/3-stage_cs-vco_tb.sch

Circuit: ** sch_path: /home/darunix/gitsandboxes/vco/vco/xschem/3-stage_cs-vco_tb.sch

option SCALE: Scale is set to 1e-06 for instance and model parameters
Doing analysis at TEMP = 27.000000 and TNOM = 27.000000

Warning: v1: no DC value, transient time 0 value used

Initial Transient Solution
--------------------------

Node                                   Voltage
----                                   -------
x1.net7                                    1.8
x1.net6                            1.12909e-06
net1                                       1.8
net2                                         0
out                                6.80528e-09
x1.vgp                                 1.66135
vctrl                                        0
x1.net8                               0.952127
x1.ng3                             9.63187e-09
x1.net5                                    1.8
x1.ng0                             3.93259e-09
x1.vco_switch_n_v2_0/selb          2.69671e-09
sel0                                       1.8
x1.ng1                             3.93259e-09
x1.vco_switch_n_v2_1/selb          2.69671e-09
sel1                                       1.8
x1.ng2                             3.93259e-09
x1.vco_switch_n_v2_2/selb          2.69671e-09
sel2                                       1.8
x1.vco_switch_n_v2_3/selb                  1.8
sel3                                         0
x1.net3                               0.952128
x1.net2                                 1.7937
x1.net4                               0.102646
x1.pg3                                     1.8
x1.pg0                                 1.66135
x1.vco_switch_p_0/selb             2.69671e-09
x1.pg1                                 1.66135
x1.pg2                                 1.66135
x1.vco_switch_p_2/selb             2.69671e-09
x1.vco_switch_p_1/selb             2.69671e-09
x1.vco_switch_p_3/selb                     1.8
vdd                                        1.8
buf1_out                           2.60627e-09
net4                                4.9501e-09
net5                                4.9501e-09
net3                                4.9501e-09
buf16_out                           4.9501e-09
v1#branch                          1.52147e-11
vmeas_current_gnd#branch           1.30191e-05
vmeas_current_vdd#branch           1.30191e-05
v2#branch                         -1.30192e-05
vsel3#branch                                 0
vsel2#branch                                 0
vsel1#branch                                 0
vsel0#branch                                 0


No. of Data Rows : 7020

  Measurements for Transient Analysis

tvco_outside_while  =  2.488344e-10 targ=  1.445444e-08 trig=  1.420561e-08
fvco_outside_while  =  4.01874e+09
supply_current_rms_outside_while=   5.53190e-04 from=  1.00000e-08 to=  4.00000e-08
ground_current_rms_outside_while=   5.52535e-04 from=  1.00000e-08 to=  4.00000e-08
vctrl_avg_outside_while=  1.500000e+00 from=  1.000000e-08 to=  2.000500e-08
vhigh_outside_while =  1.911213e+00 at=  1.527500e-08
vlow_outside_while  =  -8.499148e-02 at=  1.517500e-08
peak_to_peak_outside_while=  1.99620e+00
supply_current_rms  =   5.45435e-04 from=  0.00000e+00 to=  7.00000e-08

binary raw file "3-stage_cs-vco_tb_WITH_APPENDWRITE.raw"
Reset re-loads circuit ** sch_path: /home/darunix/gitsandboxes/vco/vco/xschem/3-stage_cs-vco_tb.sch

Circuit: ** sch_path: /home/darunix/gitsandboxes/vco/vco/xschem/3-stage_cs-vco_tb.sch

option SCALE: Scale is set to 1e-06 for instance and model parameters
Doing analysis at TEMP = 27.000000 and TNOM = 27.000000

Warning: v1: no DC value, transient time 0 value used

Initial Transient Solution
--------------------------

Node                                   Voltage
----                                   -------
x1.net7                                    1.8
x1.net6                            1.12909e-06
net1                                       1.8
net2                                         0
out                                6.80528e-09
x1.vgp                                 1.66135
vctrl                                        0
x1.net8                               0.952127
x1.ng3                             9.63187e-09
x1.net5                                    1.8
x1.ng0                             3.93259e-09
x1.vco_switch_n_v2_0/selb          2.69671e-09
sel0                                       1.8
x1.ng1                             3.93259e-09
x1.vco_switch_n_v2_1/selb          2.69671e-09
sel1                                       1.8
x1.ng2                             3.93259e-09
x1.vco_switch_n_v2_2/selb          2.69671e-09
sel2                                       1.8
x1.vco_switch_n_v2_3/selb                  1.8
sel3                                         0
x1.net3                               0.952128
x1.net2                                 1.7937
x1.net4                               0.102646
x1.pg3                                     1.8
x1.pg0                                 1.66135
x1.vco_switch_p_0/selb             2.69671e-09
x1.pg1                                 1.66135
x1.pg2                                 1.66135
x1.vco_switch_p_2/selb             2.69671e-09
x1.vco_switch_p_1/selb             2.69671e-09
x1.vco_switch_p_3/selb                     1.8
vdd                                        1.8
buf1_out                           2.60627e-09
net4                                4.9501e-09
net5                                4.9501e-09
net3                                4.9501e-09
buf16_out                           4.9501e-09
v1#branch                          1.52147e-11
vmeas_current_gnd#branch           1.30191e-05
vmeas_current_vdd#branch           1.30191e-05
v2#branch                         -1.30192e-05
vsel3#branch                                 0
vsel2#branch                                 0
vsel1#branch                                 0
vsel0#branch                                 0


No. of Data Rows : 7020

  Measurements for Transient Analysis

tvco_outside_while  =  2.485325e-10 targ=  1.442796e-08 trig=  1.417942e-08
fvco_outside_while  =  4.02362e+09
supply_current_rms_outside_while=   5.56492e-04 from=  1.00000e-08 to=  4.00000e-08
ground_current_rms_outside_while=   5.56239e-04 from=  1.00000e-08 to=  4.00000e-08
vctrl_avg_outside_while=  1.600000e+00 from=  1.000000e-08 to=  2.000500e-08
vhigh_outside_while =  1.910903e+00 at=  1.723500e-08
vlow_outside_while  =  -8.492703e-02 at=  1.713500e-08
peak_to_peak_outside_while=  1.99583e+00
supply_current_rms  =   5.48659e-04 from=  0.00000e+00 to=  7.00000e-08

binary raw file "3-stage_cs-vco_tb_WITH_APPENDWRITE.raw"
Reset re-loads circuit ** sch_path: /home/darunix/gitsandboxes/vco/vco/xschem/3-stage_cs-vco_tb.sch

Circuit: ** sch_path: /home/darunix/gitsandboxes/vco/vco/xschem/3-stage_cs-vco_tb.sch

option SCALE: Scale is set to 1e-06 for instance and model parameters
Doing analysis at TEMP = 27.000000 and TNOM = 27.000000

Warning: v1: no DC value, transient time 0 value used

Initial Transient Solution
--------------------------

Node                                   Voltage
----                                   -------
x1.net7                                    1.8
x1.net6                            1.12909e-06
net1                                       1.8
net2                                         0
out                                6.80528e-09
x1.vgp                                 1.66135
vctrl                                        0
x1.net8                               0.952127
x1.ng3                             9.63187e-09
x1.net5                                    1.8
x1.ng0                             3.93259e-09
x1.vco_switch_n_v2_0/selb          2.69671e-09
sel0                                       1.8
x1.ng1                             3.93259e-09
x1.vco_switch_n_v2_1/selb          2.69671e-09
sel1                                       1.8
x1.ng2                             3.93259e-09
x1.vco_switch_n_v2_2/selb          2.69671e-09
sel2                                       1.8
x1.vco_switch_n_v2_3/selb                  1.8
sel3                                         0
x1.net3                               0.952128
x1.net2                                 1.7937
x1.net4                               0.102646
x1.pg3                                     1.8
x1.pg0                                 1.66135
x1.vco_switch_p_0/selb             2.69671e-09
x1.pg1                                 1.66135
x1.pg2                                 1.66135
x1.vco_switch_p_2/selb             2.69671e-09
x1.vco_switch_p_1/selb             2.69671e-09
x1.vco_switch_p_3/selb                     1.8
vdd                                        1.8
buf1_out                           2.60627e-09
net4                                4.9501e-09
net5                                4.9501e-09
net3                                4.9501e-09
buf16_out                           4.9501e-09
v1#branch                          1.52147e-11
vmeas_current_gnd#branch           1.30191e-05
vmeas_current_vdd#branch           1.30191e-05
v2#branch                         -1.30192e-05
vsel3#branch                                 0
vsel2#branch                                 0
vsel1#branch                                 0
vsel0#branch                                 0


No. of Data Rows : 7020

  Measurements for Transient Analysis

tvco_outside_while  =  2.482718e-10 targ=  1.440790e-08 trig=  1.415963e-08
fvco_outside_while  =  4.02784e+09
supply_current_rms_outside_while=   5.59789e-04 from=  1.00000e-08 to=  4.00000e-08
ground_current_rms_outside_while=   5.59351e-04 from=  1.00000e-08 to=  4.00000e-08
vctrl_avg_outside_while=  1.700000e+00 from=  1.000000e-08 to=  2.000500e-08
vhigh_outside_while =  1.910636e+00 at=  1.944500e-08
vlow_outside_while  =  -8.491362e-02 at=  1.264500e-08
peak_to_peak_outside_while=  1.99555e+00
supply_current_rms  =   5.51502e-04 from=  0.00000e+00 to=  7.00000e-08

binary raw file "3-stage_cs-vco_tb_WITH_APPENDWRITE.raw"
Reset re-loads circuit ** sch_path: /home/darunix/gitsandboxes/vco/vco/xschem/3-stage_cs-vco_tb.sch

Circuit: ** sch_path: /home/darunix/gitsandboxes/vco/vco/xschem/3-stage_cs-vco_tb.sch

option SCALE: Scale is set to 1e-06 for instance and model parameters
Doing analysis at TEMP = 27.000000 and TNOM = 27.000000

Warning: v1: no DC value, transient time 0 value used

Initial Transient Solution
--------------------------

Node                                   Voltage
----                                   -------
x1.net7                                    1.8
x1.net6                            1.12909e-06
net1                                       1.8
net2                                         0
out                                6.80528e-09
x1.vgp                                 1.66135
vctrl                                        0
x1.net8                               0.952127
x1.ng3                             9.63187e-09
x1.net5                                    1.8
x1.ng0                             3.93259e-09
x1.vco_switch_n_v2_0/selb          2.69671e-09
sel0                                       1.8
x1.ng1                             3.93259e-09
x1.vco_switch_n_v2_1/selb          2.69671e-09
sel1                                       1.8
x1.ng2                             3.93259e-09
x1.vco_switch_n_v2_2/selb          2.69671e-09
sel2                                       1.8
x1.vco_switch_n_v2_3/selb                  1.8
sel3                                         0
x1.net3                               0.952128
x1.net2                                 1.7937
x1.net4                               0.102646
x1.pg3                                     1.8
x1.pg0                                 1.66135
x1.vco_switch_p_0/selb             2.69671e-09
x1.pg1                                 1.66135
x1.pg2                                 1.66135
x1.vco_switch_p_2/selb             2.69671e-09
x1.vco_switch_p_1/selb             2.69671e-09
x1.vco_switch_p_3/selb                     1.8
vdd                                        1.8
buf1_out                           2.60627e-09
net4                                4.9501e-09
net5                                4.9501e-09
net3                                4.9501e-09
buf16_out                           4.9501e-09
v1#branch                          1.52147e-11
vmeas_current_gnd#branch           1.30191e-05
vmeas_current_vdd#branch           1.30191e-05
v2#branch                         -1.30192e-05
vsel3#branch                                 0
vsel2#branch                                 0
vsel1#branch                                 0
vsel0#branch                                 0


No. of Data Rows : 7020

  Measurements for Transient Analysis

tvco_outside_while  =  2.478008e-10 targ=  1.439156e-08 trig=  1.414376e-08
fvco_outside_while  =  4.03550e+09
supply_current_rms_outside_while=   5.62194e-04 from=  1.00000e-08 to=  4.00000e-08
ground_current_rms_outside_while=   5.61251e-04 from=  1.00000e-08 to=  4.00000e-08
vctrl_avg_outside_while=  1.800000e+00 from=  1.000000e-08 to=  2.000500e-08
vhigh_outside_while =  1.910490e+00 at=  1.694500e-08
vlow_outside_while  =  -8.489914e-02 at=  1.932500e-08
peak_to_peak_outside_while=  1.99539e+00
supply_current_rms  =   5.53942e-04 from=  0.00000e+00 to=  7.00000e-08

binary raw file "3-stage_cs-vco_tb_WITH_APPENDWRITE.raw"
Doing analysis at TEMP = 27.000000 and TNOM = 27.000000

Warning: v1: no DC value, transient time 0 value used

  Measurements for Transient Analysis

tvco_outside_while  =  2.478008e-10 targ=  1.439156e-08 trig=  1.414376e-08
Original line no.: 0, new internal line no.: 12460:
insertnumber: fails.
  s = ".meas tran fvco_outside_while param=    4.035499510064193e+09   " u="  4.035499510064193e+09  " id=0
fvco_outside_while  =  4.03550e+09
supply_current_rms_outside_while=   5.62194e-04 from=  1.00000e-08 to=  4.00000e-08
ground_current_rms_outside_while=   5.61251e-04 from=  1.00000e-08 to=  4.00000e-08
vctrl_avg_outside_while=  1.800000e+00 from=  1.000000e-08 to=  2.000500e-08
vhigh_outside_while =  1.910490e+00 at=  1.694500e-08
vlow_outside_while  =  -8.489914e-02 at=  1.932500e-08
Original line no.: 0, new internal line no.: 12466:
insertnumber: fails.
  s = ".meas tran peak_to_peak_outside_while param=    1.995388736917344e+00   " u="  1.995388736917344e+00  " id=0
peak_to_peak_outside_while=  1.99539e+00
supply_current_rms  =   5.53942e-04 from=  0.00000e+00 to=  7.00000e-08


Total analysis time (seconds) = 15.0595

Total CPU time (seconds) = 303.944 

Total DRAM available = 7952.234 MB.
DRAM currently available = 4552.332 MB.
Maximum ngspice program size =  684.801 MB.
Current ngspice program size =  665.574 MB.

Shared ngspice pages =    8.488 MB.
Text (code) pages =    7.879 MB.
Stack = 0 bytes.
Library pages =  657.316 MB.

