
Compatibility modes selected: hs a

Warning: m=xx on .subckt line will override multiplier m hierarchy!


Circuit: ** sch_path: /home/darunix/gitsandboxes/vco/vco/xschem/3-stage_cs-vco_tb.sch

option SCALE: Scale is set to 1e-06 for instance and model parameters
Reset re-loads circuit ** sch_path: /home/darunix/gitsandboxes/vco/vco/xschem/3-stage_cs-vco_tb.sch

Circuit: ** sch_path: /home/darunix/gitsandboxes/vco/vco/xschem/3-stage_cs-vco_tb.sch

option SCALE: Scale is set to 1e-06 for instance and model parameters
Reset re-loads circuit ** sch_path: /home/darunix/gitsandboxes/vco/vco/xschem/3-stage_cs-vco_tb.sch

Circuit: ** sch_path: /home/darunix/gitsandboxes/vco/vco/xschem/3-stage_cs-vco_tb.sch

option SCALE: Scale is set to 1e-06 for instance and model parameters
Doing analysis at TEMP = 27.000000 and TNOM = 27.000000

Warning: v1: no DC value, transient time 0 value used

Initial Transient Solution
--------------------------

Node                                   Voltage
----                                   -------
x1.net7                                    1.8
x1.net6                            1.12909e-06
net1                                       1.8
net2                                         0
out                                6.80528e-09
x1.vgp                                  1.6571
vctrl                                        0
x1.net8                               0.966293
x1.ng3                             3.93259e-09
x1.net5                                    1.8
x1.ng0                             3.93259e-09
x1.vco_switch_n_v2_0/selb          2.69671e-09
sel0                                       1.8
x1.ng1                             3.93259e-09
x1.vco_switch_n_v2_1/selb          2.69671e-09
sel1                                       1.8
x1.ng2                             3.93259e-09
x1.vco_switch_n_v2_2/selb          2.69671e-09
sel2                                       1.8
x1.vco_switch_n_v2_3/selb          2.69671e-09
sel3                                       1.8
x1.net3                               0.966293
x1.net2                                1.79523
x1.net4                              0.0839479
x1.pg3                                  1.6571
x1.pg0                                  1.6571
x1.vco_switch_p_0/selb             2.69671e-09
x1.pg1                                  1.6571
x1.pg2                                  1.6571
x1.vco_switch_p_2/selb             2.69671e-09
x1.vco_switch_p_1/selb             2.69671e-09
x1.vco_switch_p_3/selb             2.69671e-09
vdd                                        1.8
buf1_out                           2.60627e-09
net4                                4.9501e-09
net5                                4.9501e-09
net3                                4.9501e-09
buf16_out                           4.9501e-09
v1#branch                          1.44058e-11
vmeas_current_gnd#branch            1.2222e-05
vmeas_current_vdd#branch            1.2222e-05
v2#branch                         -1.22221e-05
vsel3#branch                                 0
vsel2#branch                                 0
vsel1#branch                                 0
vsel0#branch                                 0


No. of Data Rows : 7020

  Measurements for Transient Analysis


Error: measure  tvco_outside_while  (TRIG) : out of interval
 .meas tran tvco_outside_while trig v(out) val=0.5*1.8 rise=50 targ v(out) val=0.5*1.8 rise=51 failed!

Original line no.: 0, new internal line no.: 12460:
Undefined number [tvco_outside_while]
Original line no.: 0, new internal line no.: 12460:
Cannot compute substitute
fvco_outside_while  =   failed
supply_current_rms_outside_while=   3.38361e-05 from=  1.00000e-08 to=  4.00000e-08
ground_current_rms_outside_while=   3.86650e-05 from=  1.00000e-08 to=  4.00000e-08
vctrl_avg_outside_while=  0.000000e+00 from=  1.000000e-08 to=  2.000500e-08
vhigh_outside_while =  1.926907e+00 at=  1.034500e-08
vlow_outside_while  =  -8.116158e-02 at=  1.016500e-08
peak_to_peak_outside_while=  2.00807e+00
supply_current_rms  =   5.59574e-05 from=  0.00000e+00 to=  7.00000e-08

binary raw file "3-stage_cs-vco_tb_WITH_APPENDWRITE.raw"
Reset re-loads circuit ** sch_path: /home/darunix/gitsandboxes/vco/vco/xschem/3-stage_cs-vco_tb.sch

Circuit: ** sch_path: /home/darunix/gitsandboxes/vco/vco/xschem/3-stage_cs-vco_tb.sch

option SCALE: Scale is set to 1e-06 for instance and model parameters
Doing analysis at TEMP = 27.000000 and TNOM = 27.000000

Warning: v1: no DC value, transient time 0 value used

Initial Transient Solution
--------------------------

Node                                   Voltage
----                                   -------
x1.net7                                    1.8
x1.net6                            1.12909e-06
net1                                       1.8
net2                                         0
out                                6.80528e-09
x1.vgp                                  1.6571
vctrl                                        0
x1.net8                               0.966293
x1.ng3                             3.93259e-09
x1.net5                                    1.8
x1.ng0                             3.93259e-09
x1.vco_switch_n_v2_0/selb          2.69671e-09
sel0                                       1.8
x1.ng1                             3.93259e-09
x1.vco_switch_n_v2_1/selb          2.69671e-09
sel1                                       1.8
x1.ng2                             3.93259e-09
x1.vco_switch_n_v2_2/selb          2.69671e-09
sel2                                       1.8
x1.vco_switch_n_v2_3/selb          2.69671e-09
sel3                                       1.8
x1.net3                               0.966293
x1.net2                                1.79523
x1.net4                              0.0839479
x1.pg3                                  1.6571
x1.pg0                                  1.6571
x1.vco_switch_p_0/selb             2.69671e-09
x1.pg1                                  1.6571
x1.pg2                                  1.6571
x1.vco_switch_p_2/selb             2.69671e-09
x1.vco_switch_p_1/selb             2.69671e-09
x1.vco_switch_p_3/selb             2.69671e-09
vdd                                        1.8
buf1_out                           2.60627e-09
net4                                4.9501e-09
net5                                4.9501e-09
net3                                4.9501e-09
buf16_out                           4.9501e-09
v1#branch                          1.44058e-11
vmeas_current_gnd#branch            1.2222e-05
vmeas_current_vdd#branch            1.2222e-05
v2#branch                         -1.22221e-05
vsel3#branch                                 0
vsel2#branch                                 0
vsel1#branch                                 0
vsel0#branch                                 0


No. of Data Rows : 7020

  Measurements for Transient Analysis


Error: measure  tvco_outside_while  (TRIG) : out of interval
 .meas tran tvco_outside_while trig v(out) val=0.5*1.8 rise=50 targ v(out) val=0.5*1.8 rise=51 failed!

Original line no.: 0, new internal line no.: 12460:
Undefined number [tvco_outside_while]
Original line no.: 0, new internal line no.: 12460:
Cannot compute substitute
fvco_outside_while  =   failed
supply_current_rms_outside_while=   4.62342e-05 from=  1.00000e-08 to=  4.00000e-08
ground_current_rms_outside_while=   5.49880e-05 from=  1.00000e-08 to=  4.00000e-08
vctrl_avg_outside_while=  1.000000e-01 from=  1.000000e-08 to=  2.000500e-08
vhigh_outside_while =  1.122765e-05 at=  1.048500e-08
vlow_outside_while  =  -1.121234e-05 at=  1.049500e-08
peak_to_peak_outside_while=  2.24400e-05
supply_current_rms  =   6.58514e-05 from=  0.00000e+00 to=  7.00000e-08

binary raw file "3-stage_cs-vco_tb_WITH_APPENDWRITE.raw"
Reset re-loads circuit ** sch_path: /home/darunix/gitsandboxes/vco/vco/xschem/3-stage_cs-vco_tb.sch

Circuit: ** sch_path: /home/darunix/gitsandboxes/vco/vco/xschem/3-stage_cs-vco_tb.sch

option SCALE: Scale is set to 1e-06 for instance and model parameters
Doing analysis at TEMP = 27.000000 and TNOM = 27.000000

Warning: v1: no DC value, transient time 0 value used

Initial Transient Solution
--------------------------

Node                                   Voltage
----                                   -------
x1.net7                                    1.8
x1.net6                            1.12909e-06
net1                                       1.8
net2                                         0
out                                6.80528e-09
x1.vgp                                  1.6571
vctrl                                        0
x1.net8                               0.966293
x1.ng3                             3.93259e-09
x1.net5                                    1.8
x1.ng0                             3.93259e-09
x1.vco_switch_n_v2_0/selb          2.69671e-09
sel0                                       1.8
x1.ng1                             3.93259e-09
x1.vco_switch_n_v2_1/selb          2.69671e-09
sel1                                       1.8
x1.ng2                             3.93259e-09
x1.vco_switch_n_v2_2/selb          2.69671e-09
sel2                                       1.8
x1.vco_switch_n_v2_3/selb          2.69671e-09
sel3                                       1.8
x1.net3                               0.966293
x1.net2                                1.79523
x1.net4                              0.0839479
x1.pg3                                  1.6571
x1.pg0                                  1.6571
x1.vco_switch_p_0/selb             2.69671e-09
x1.pg1                                  1.6571
x1.pg2                                  1.6571
x1.vco_switch_p_2/selb             2.69671e-09
x1.vco_switch_p_1/selb             2.69671e-09
x1.vco_switch_p_3/selb             2.69671e-09
vdd                                        1.8
buf1_out                           2.60627e-09
net4                                4.9501e-09
net5                                4.9501e-09
net3                                4.9501e-09
buf16_out                           4.9501e-09
v1#branch                          1.44058e-11
vmeas_current_gnd#branch            1.2222e-05
vmeas_current_vdd#branch            1.2222e-05
v2#branch                         -1.22221e-05
vsel3#branch                                 0
vsel2#branch                                 0
vsel1#branch                                 0
vsel0#branch                                 0


No. of Data Rows : 7020

  Measurements for Transient Analysis


Error: measure  tvco_outside_while  (TRIG) : out of interval
 .meas tran tvco_outside_while trig v(out) val=0.5*1.8 rise=50 targ v(out) val=0.5*1.8 rise=51 failed!

Original line no.: 0, new internal line no.: 12460:
Undefined number [tvco_outside_while]
Original line no.: 0, new internal line no.: 12460:
Cannot compute substitute
fvco_outside_while  =   failed
supply_current_rms_outside_while=   2.28524e-05 from=  1.00000e-08 to=  4.00000e-08
ground_current_rms_outside_while=   2.89048e-05 from=  1.00000e-08 to=  4.00000e-08
vctrl_avg_outside_while=  2.000000e-01 from=  1.000000e-08 to=  2.000500e-08
vhigh_outside_while =  8.200122e-06 at=  1.001500e-08
vlow_outside_while  =  -8.197467e-06 at=  1.000500e-08
peak_to_peak_outside_while=  1.63976e-05
supply_current_rms  =   5.47382e-05 from=  0.00000e+00 to=  7.00000e-08

binary raw file "3-stage_cs-vco_tb_WITH_APPENDWRITE.raw"
Reset re-loads circuit ** sch_path: /home/darunix/gitsandboxes/vco/vco/xschem/3-stage_cs-vco_tb.sch

Circuit: ** sch_path: /home/darunix/gitsandboxes/vco/vco/xschem/3-stage_cs-vco_tb.sch

option SCALE: Scale is set to 1e-06 for instance and model parameters
Doing analysis at TEMP = 27.000000 and TNOM = 27.000000

Warning: v1: no DC value, transient time 0 value used

Initial Transient Solution
--------------------------

Node                                   Voltage
----                                   -------
x1.net7                                    1.8
x1.net6                            1.12909e-06
net1                                       1.8
net2                                         0
out                                6.80528e-09
x1.vgp                                  1.6571
vctrl                                        0
x1.net8                               0.966293
x1.ng3                             3.93259e-09
x1.net5                                    1.8
x1.ng0                             3.93259e-09
x1.vco_switch_n_v2_0/selb          2.69671e-09
sel0                                       1.8
x1.ng1                             3.93259e-09
x1.vco_switch_n_v2_1/selb          2.69671e-09
sel1                                       1.8
x1.ng2                             3.93259e-09
x1.vco_switch_n_v2_2/selb          2.69671e-09
sel2                                       1.8
x1.vco_switch_n_v2_3/selb          2.69671e-09
sel3                                       1.8
x1.net3                               0.966293
x1.net2                                1.79523
x1.net4                              0.0839479
x1.pg3                                  1.6571
x1.pg0                                  1.6571
x1.vco_switch_p_0/selb             2.69671e-09
x1.pg1                                  1.6571
x1.pg2                                  1.6571
x1.vco_switch_p_2/selb             2.69671e-09
x1.vco_switch_p_1/selb             2.69671e-09
x1.vco_switch_p_3/selb             2.69671e-09
vdd                                        1.8
buf1_out                           2.60627e-09
net4                                4.9501e-09
net5                                4.9501e-09
net3                                4.9501e-09
buf16_out                           4.9501e-09
v1#branch                          1.44058e-11
vmeas_current_gnd#branch            1.2222e-05
vmeas_current_vdd#branch            1.2222e-05
v2#branch                         -1.22221e-05
vsel3#branch                                 0
vsel2#branch                                 0
vsel1#branch                                 0
vsel0#branch                                 0


No. of Data Rows : 7020

  Measurements for Transient Analysis


Error: measure  tvco_outside_while  (TRIG) : out of interval
 .meas tran tvco_outside_while trig v(out) val=0.5*1.8 rise=50 targ v(out) val=0.5*1.8 rise=51 failed!

Original line no.: 0, new internal line no.: 12460:
Undefined number [tvco_outside_while]
Original line no.: 0, new internal line no.: 12460:
Cannot compute substitute
fvco_outside_while  =   failed
supply_current_rms_outside_while=   5.24008e-05 from=  1.00000e-08 to=  4.00000e-08
ground_current_rms_outside_while=   3.29688e-05 from=  1.00000e-08 to=  4.00000e-08
vctrl_avg_outside_while=  3.000000e-01 from=  1.000000e-08 to=  2.000500e-08
vhigh_outside_while =  2.438409e-06 at=  1.001500e-08
vlow_outside_while  =  -2.432477e-06 at=  1.000500e-08
peak_to_peak_outside_while=  4.87089e-06
supply_current_rms  =   7.00545e-05 from=  0.00000e+00 to=  7.00000e-08

binary raw file "3-stage_cs-vco_tb_WITH_APPENDWRITE.raw"
Reset re-loads circuit ** sch_path: /home/darunix/gitsandboxes/vco/vco/xschem/3-stage_cs-vco_tb.sch

Circuit: ** sch_path: /home/darunix/gitsandboxes/vco/vco/xschem/3-stage_cs-vco_tb.sch

option SCALE: Scale is set to 1e-06 for instance and model parameters
Doing analysis at TEMP = 27.000000 and TNOM = 27.000000

Warning: v1: no DC value, transient time 0 value used

Initial Transient Solution
--------------------------

Node                                   Voltage
----                                   -------
x1.net7                                    1.8
x1.net6                            1.12909e-06
net1                                       1.8
net2                                         0
out                                6.80528e-09
x1.vgp                                  1.6571
vctrl                                        0
x1.net8                               0.966293
x1.ng3                             3.93259e-09
x1.net5                                    1.8
x1.ng0                             3.93259e-09
x1.vco_switch_n_v2_0/selb          2.69671e-09
sel0                                       1.8
x1.ng1                             3.93259e-09
x1.vco_switch_n_v2_1/selb          2.69671e-09
sel1                                       1.8
x1.ng2                             3.93259e-09
x1.vco_switch_n_v2_2/selb          2.69671e-09
sel2                                       1.8
x1.vco_switch_n_v2_3/selb          2.69671e-09
sel3                                       1.8
x1.net3                               0.966293
x1.net2                                1.79523
x1.net4                              0.0839479
x1.pg3                                  1.6571
x1.pg0                                  1.6571
x1.vco_switch_p_0/selb             2.69671e-09
x1.pg1                                  1.6571
x1.pg2                                  1.6571
x1.vco_switch_p_2/selb             2.69671e-09
x1.vco_switch_p_1/selb             2.69671e-09
x1.vco_switch_p_3/selb             2.69671e-09
vdd                                        1.8
buf1_out                           2.60627e-09
net4                                4.9501e-09
net5                                4.9501e-09
net3                                4.9501e-09
buf16_out                           4.9501e-09
v1#branch                          1.44058e-11
vmeas_current_gnd#branch            1.2222e-05
vmeas_current_vdd#branch            1.2222e-05
v2#branch                         -1.22221e-05
vsel3#branch                                 0
vsel2#branch                                 0
vsel1#branch                                 0
vsel0#branch                                 0


No. of Data Rows : 7020

  Measurements for Transient Analysis


Error: measure  tvco_outside_while  (TRIG) : out of interval
 .meas tran tvco_outside_while trig v(out) val=0.5*1.8 rise=50 targ v(out) val=0.5*1.8 rise=51 failed!

Original line no.: 0, new internal line no.: 12460:
Undefined number [tvco_outside_while]
Original line no.: 0, new internal line no.: 12460:
Cannot compute substitute
fvco_outside_while  =   failed
supply_current_rms_outside_while=   4.72235e-05 from=  1.00000e-08 to=  4.00000e-08
ground_current_rms_outside_while=   3.86317e-05 from=  1.00000e-08 to=  4.00000e-08
vctrl_avg_outside_while=  4.000000e-01 from=  1.000000e-08 to=  2.000500e-08
vhigh_outside_while =  8.051442e-06 at=  1.001500e-08
vlow_outside_while  =  -8.074358e-06 at=  1.000500e-08
peak_to_peak_outside_while=  1.61258e-05
supply_current_rms  =   6.66147e-05 from=  0.00000e+00 to=  7.00000e-08

binary raw file "3-stage_cs-vco_tb_WITH_APPENDWRITE.raw"
Reset re-loads circuit ** sch_path: /home/darunix/gitsandboxes/vco/vco/xschem/3-stage_cs-vco_tb.sch

Circuit: ** sch_path: /home/darunix/gitsandboxes/vco/vco/xschem/3-stage_cs-vco_tb.sch

option SCALE: Scale is set to 1e-06 for instance and model parameters
Doing analysis at TEMP = 27.000000 and TNOM = 27.000000

Warning: v1: no DC value, transient time 0 value used

Initial Transient Solution
--------------------------

Node                                   Voltage
----                                   -------
x1.net7                                    1.8
x1.net6                            1.12909e-06
net1                                       1.8
net2                                         0
out                                6.80528e-09
x1.vgp                                  1.6571
vctrl                                        0
x1.net8                               0.966293
x1.ng3                             3.93259e-09
x1.net5                                    1.8
x1.ng0                             3.93259e-09
x1.vco_switch_n_v2_0/selb          2.69671e-09
sel0                                       1.8
x1.ng1                             3.93259e-09
x1.vco_switch_n_v2_1/selb          2.69671e-09
sel1                                       1.8
x1.ng2                             3.93259e-09
x1.vco_switch_n_v2_2/selb          2.69671e-09
sel2                                       1.8
x1.vco_switch_n_v2_3/selb          2.69671e-09
sel3                                       1.8
x1.net3                               0.966293
x1.net2                                1.79523
x1.net4                              0.0839479
x1.pg3                                  1.6571
x1.pg0                                  1.6571
x1.vco_switch_p_0/selb             2.69671e-09
x1.pg1                                  1.6571
x1.pg2                                  1.6571
x1.vco_switch_p_2/selb             2.69671e-09
x1.vco_switch_p_1/selb             2.69671e-09
x1.vco_switch_p_3/selb             2.69671e-09
vdd                                        1.8
buf1_out                           2.60627e-09
net4                                4.9501e-09
net5                                4.9501e-09
net3                                4.9501e-09
buf16_out                           4.9501e-09
v1#branch                          1.44058e-11
vmeas_current_gnd#branch            1.2222e-05
vmeas_current_vdd#branch            1.2222e-05
v2#branch                         -1.22221e-05
vsel3#branch                                 0
vsel2#branch                                 0
vsel1#branch                                 0
vsel0#branch                                 0


No. of Data Rows : 7020

  Measurements for Transient Analysis


Error: measure  tvco_outside_while  (TRIG) : out of interval
 .meas tran tvco_outside_while trig v(out) val=0.5*1.8 rise=50 targ v(out) val=0.5*1.8 rise=51 failed!

Original line no.: 0, new internal line no.: 12460:
Undefined number [tvco_outside_while]
Original line no.: 0, new internal line no.: 12460:
Cannot compute substitute
fvco_outside_while  =   failed
supply_current_rms_outside_while=   7.62886e-05 from=  1.00000e-08 to=  4.00000e-08
ground_current_rms_outside_while=   7.64586e-05 from=  1.00000e-08 to=  4.00000e-08
vctrl_avg_outside_while=  5.000000e-01 from=  1.000000e-08 to=  2.000500e-08
vhigh_outside_while =  1.929096e+00 at=  1.098500e-08
vlow_outside_while  =  -8.057387e-02 at=  1.082500e-08
peak_to_peak_outside_while=  2.00967e+00
supply_current_rms  =   9.64272e-05 from=  0.00000e+00 to=  7.00000e-08

binary raw file "3-stage_cs-vco_tb_WITH_APPENDWRITE.raw"
Reset re-loads circuit ** sch_path: /home/darunix/gitsandboxes/vco/vco/xschem/3-stage_cs-vco_tb.sch

Circuit: ** sch_path: /home/darunix/gitsandboxes/vco/vco/xschem/3-stage_cs-vco_tb.sch

option SCALE: Scale is set to 1e-06 for instance and model parameters
Doing analysis at TEMP = 27.000000 and TNOM = 27.000000

Warning: v1: no DC value, transient time 0 value used

Initial Transient Solution
--------------------------

Node                                   Voltage
----                                   -------
x1.net7                                    1.8
x1.net6                            1.12909e-06
net1                                       1.8
net2                                         0
out                                6.80528e-09
x1.vgp                                  1.6571
vctrl                                        0
x1.net8                               0.966293
x1.ng3                             3.93259e-09
x1.net5                                    1.8
x1.ng0                             3.93259e-09
x1.vco_switch_n_v2_0/selb          2.69671e-09
sel0                                       1.8
x1.ng1                             3.93259e-09
x1.vco_switch_n_v2_1/selb          2.69671e-09
sel1                                       1.8
x1.ng2                             3.93259e-09
x1.vco_switch_n_v2_2/selb          2.69671e-09
sel2                                       1.8
x1.vco_switch_n_v2_3/selb          2.69671e-09
sel3                                       1.8
x1.net3                               0.966293
x1.net2                                1.79523
x1.net4                              0.0839479
x1.pg3                                  1.6571
x1.pg0                                  1.6571
x1.vco_switch_p_0/selb             2.69671e-09
x1.pg1                                  1.6571
x1.pg2                                  1.6571
x1.vco_switch_p_2/selb             2.69671e-09
x1.vco_switch_p_1/selb             2.69671e-09
x1.vco_switch_p_3/selb             2.69671e-09
vdd                                        1.8
buf1_out                           2.60627e-09
net4                                4.9501e-09
net5                                4.9501e-09
net3                                4.9501e-09
buf16_out                           4.9501e-09
v1#branch                          1.44058e-11
vmeas_current_gnd#branch            1.2222e-05
vmeas_current_vdd#branch            1.2222e-05
v2#branch                         -1.22221e-05
vsel3#branch                                 0
vsel2#branch                                 0
vsel1#branch                                 0
vsel0#branch                                 0


No. of Data Rows : 7020

  Measurements for Transient Analysis


Error: measure  tvco_outside_while  (TRIG) : out of interval
 .meas tran tvco_outside_while trig v(out) val=0.5*1.8 rise=50 targ v(out) val=0.5*1.8 rise=51 failed!

Original line no.: 0, new internal line no.: 12460:
Undefined number [tvco_outside_while]
Original line no.: 0, new internal line no.: 12460:
Cannot compute substitute
fvco_outside_while  =   failed
supply_current_rms_outside_while=   2.13201e-04 from=  1.00000e-08 to=  4.00000e-08
ground_current_rms_outside_while=   1.52693e-04 from=  1.00000e-08 to=  4.00000e-08
vctrl_avg_outside_while=  6.000000e-01 from=  1.000000e-08 to=  2.000500e-08
vhigh_outside_while =  1.929116e+00 at=  1.307500e-08
vlow_outside_while  =  -7.809854e-02 at=  1.320500e-08
peak_to_peak_outside_while=  2.00721e+00
supply_current_rms  =   2.04837e-04 from=  0.00000e+00 to=  7.00000e-08

binary raw file "3-stage_cs-vco_tb_WITH_APPENDWRITE.raw"
Reset re-loads circuit ** sch_path: /home/darunix/gitsandboxes/vco/vco/xschem/3-stage_cs-vco_tb.sch

Circuit: ** sch_path: /home/darunix/gitsandboxes/vco/vco/xschem/3-stage_cs-vco_tb.sch

option SCALE: Scale is set to 1e-06 for instance and model parameters
Doing analysis at TEMP = 27.000000 and TNOM = 27.000000

Warning: v1: no DC value, transient time 0 value used

Initial Transient Solution
--------------------------

Node                                   Voltage
----                                   -------
x1.net7                                    1.8
x1.net6                            1.12909e-06
net1                                       1.8
net2                                         0
out                                6.80528e-09
x1.vgp                                  1.6571
vctrl                                        0
x1.net8                               0.966293
x1.ng3                             3.93259e-09
x1.net5                                    1.8
x1.ng0                             3.93259e-09
x1.vco_switch_n_v2_0/selb          2.69671e-09
sel0                                       1.8
x1.ng1                             3.93259e-09
x1.vco_switch_n_v2_1/selb          2.69671e-09
sel1                                       1.8
x1.ng2                             3.93259e-09
x1.vco_switch_n_v2_2/selb          2.69671e-09
sel2                                       1.8
x1.vco_switch_n_v2_3/selb          2.69671e-09
sel3                                       1.8
x1.net3                               0.966293
x1.net2                                1.79523
x1.net4                              0.0839479
x1.pg3                                  1.6571
x1.pg0                                  1.6571
x1.vco_switch_p_0/selb             2.69671e-09
x1.pg1                                  1.6571
x1.pg2                                  1.6571
x1.vco_switch_p_2/selb             2.69671e-09
x1.vco_switch_p_1/selb             2.69671e-09
x1.vco_switch_p_3/selb             2.69671e-09
vdd                                        1.8
buf1_out                           2.60627e-09
net4                                4.9501e-09
net5                                4.9501e-09
net3                                4.9501e-09
buf16_out                           4.9501e-09
v1#branch                          1.44058e-11
vmeas_current_gnd#branch            1.2222e-05
vmeas_current_vdd#branch            1.2222e-05
v2#branch                         -1.22221e-05
vsel3#branch                                 0
vsel2#branch                                 0
vsel1#branch                                 0
vsel0#branch                                 0


No. of Data Rows : 7020

  Measurements for Transient Analysis

tvco_outside_while  =  3.874020e-10 targ=  2.316262e-08 trig=  2.277522e-08
fvco_outside_while  =  2.58130e+09
supply_current_rms_outside_while=   2.97628e-04 from=  1.00000e-08 to=  4.00000e-08
ground_current_rms_outside_while=   3.04343e-04 from=  1.00000e-08 to=  4.00000e-08
vctrl_avg_outside_while=  7.000000e-01 from=  1.000000e-08 to=  2.000500e-08
vhigh_outside_while =  1.930634e+00 at=  1.057500e-08
vlow_outside_while  =  -7.665092e-02 at=  1.382500e-08
peak_to_peak_outside_while=  2.00728e+00
supply_current_rms  =   2.90110e-04 from=  0.00000e+00 to=  7.00000e-08

binary raw file "3-stage_cs-vco_tb_WITH_APPENDWRITE.raw"
Reset re-loads circuit ** sch_path: /home/darunix/gitsandboxes/vco/vco/xschem/3-stage_cs-vco_tb.sch

Circuit: ** sch_path: /home/darunix/gitsandboxes/vco/vco/xschem/3-stage_cs-vco_tb.sch

option SCALE: Scale is set to 1e-06 for instance and model parameters
Doing analysis at TEMP = 27.000000 and TNOM = 27.000000

Warning: v1: no DC value, transient time 0 value used

Initial Transient Solution
--------------------------

Node                                   Voltage
----                                   -------
x1.net7                                    1.8
x1.net6                            1.12909e-06
net1                                       1.8
net2                                         0
out                                6.80528e-09
x1.vgp                                  1.6571
vctrl                                        0
x1.net8                               0.966293
x1.ng3                             3.93259e-09
x1.net5                                    1.8
x1.ng0                             3.93259e-09
x1.vco_switch_n_v2_0/selb          2.69671e-09
sel0                                       1.8
x1.ng1                             3.93259e-09
x1.vco_switch_n_v2_1/selb          2.69671e-09
sel1                                       1.8
x1.ng2                             3.93259e-09
x1.vco_switch_n_v2_2/selb          2.69671e-09
sel2                                       1.8
x1.vco_switch_n_v2_3/selb          2.69671e-09
sel3                                       1.8
x1.net3                               0.966293
x1.net2                                1.79523
x1.net4                              0.0839479
x1.pg3                                  1.6571
x1.pg0                                  1.6571
x1.vco_switch_p_0/selb             2.69671e-09
x1.pg1                                  1.6571
x1.pg2                                  1.6571
x1.vco_switch_p_2/selb             2.69671e-09
x1.vco_switch_p_1/selb             2.69671e-09
x1.vco_switch_p_3/selb             2.69671e-09
vdd                                        1.8
buf1_out                           2.60627e-09
net4                                4.9501e-09
net5                                4.9501e-09
net3                                4.9501e-09
buf16_out                           4.9501e-09
v1#branch                          1.44058e-11
vmeas_current_gnd#branch            1.2222e-05
vmeas_current_vdd#branch            1.2222e-05
v2#branch                         -1.22221e-05
vsel3#branch                                 0
vsel2#branch                                 0
vsel1#branch                                 0
vsel0#branch                                 0


No. of Data Rows : 7020

  Measurements for Transient Analysis

tvco_outside_while  =  2.716194e-10 targ=  1.646168e-08 trig=  1.619006e-08
fvco_outside_while  =  3.68162e+09
supply_current_rms_outside_while=   4.31981e-04 from=  1.00000e-08 to=  4.00000e-08
ground_current_rms_outside_while=   4.31471e-04 from=  1.00000e-08 to=  4.00000e-08
vctrl_avg_outside_while=  8.000000e-01 from=  1.000000e-08 to=  2.000500e-08
vhigh_outside_while =  1.926496e+00 at=  1.520500e-08
vlow_outside_while  =  -8.394625e-02 at=  1.616500e-08
peak_to_peak_outside_while=  2.01044e+00
supply_current_rms  =   4.22985e-04 from=  0.00000e+00 to=  7.00000e-08

binary raw file "3-stage_cs-vco_tb_WITH_APPENDWRITE.raw"
Reset re-loads circuit ** sch_path: /home/darunix/gitsandboxes/vco/vco/xschem/3-stage_cs-vco_tb.sch

Circuit: ** sch_path: /home/darunix/gitsandboxes/vco/vco/xschem/3-stage_cs-vco_tb.sch

option SCALE: Scale is set to 1e-06 for instance and model parameters
Doing analysis at TEMP = 27.000000 and TNOM = 27.000000

Warning: v1: no DC value, transient time 0 value used

Initial Transient Solution
--------------------------

Node                                   Voltage
----                                   -------
x1.net7                                    1.8
x1.net6                            1.12909e-06
net1                                       1.8
net2                                         0
out                                6.80528e-09
x1.vgp                                  1.6571
vctrl                                        0
x1.net8                               0.966293
x1.ng3                             3.93259e-09
x1.net5                                    1.8
x1.ng0                             3.93259e-09
x1.vco_switch_n_v2_0/selb          2.69671e-09
sel0                                       1.8
x1.ng1                             3.93259e-09
x1.vco_switch_n_v2_1/selb          2.69671e-09
sel1                                       1.8
x1.ng2                             3.93259e-09
x1.vco_switch_n_v2_2/selb          2.69671e-09
sel2                                       1.8
x1.vco_switch_n_v2_3/selb          2.69671e-09
sel3                                       1.8
x1.net3                               0.966293
x1.net2                                1.79523
x1.net4                              0.0839479
x1.pg3                                  1.6571
x1.pg0                                  1.6571
x1.vco_switch_p_0/selb             2.69671e-09
x1.pg1                                  1.6571
x1.pg2                                  1.6571
x1.vco_switch_p_2/selb             2.69671e-09
x1.vco_switch_p_1/selb             2.69671e-09
x1.vco_switch_p_3/selb             2.69671e-09
vdd                                        1.8
buf1_out                           2.60627e-09
net4                                4.9501e-09
net5                                4.9501e-09
net3                                4.9501e-09
buf16_out                           4.9501e-09
v1#branch                          1.44058e-11
vmeas_current_gnd#branch            1.2222e-05
vmeas_current_vdd#branch            1.2222e-05
v2#branch                         -1.22221e-05
vsel3#branch                                 0
vsel2#branch                                 0
vsel1#branch                                 0
vsel0#branch                                 0


No. of Data Rows : 7020

  Measurements for Transient Analysis

tvco_outside_while  =  2.537990e-10 targ=  1.497657e-08 trig=  1.472277e-08
fvco_outside_while  =  3.94013e+09
supply_current_rms_outside_while=   4.64009e-04 from=  1.00000e-08 to=  4.00000e-08
ground_current_rms_outside_while=   4.59466e-04 from=  1.00000e-08 to=  4.00000e-08
vctrl_avg_outside_while=  9.000000e-01 from=  1.000000e-08 to=  2.000500e-08
vhigh_outside_while =  1.916009e+00 at=  1.505500e-08
vlow_outside_while  =  -8.520592e-02 at=  1.748500e-08
peak_to_peak_outside_while=  2.00122e+00
supply_current_rms  =   4.56287e-04 from=  0.00000e+00 to=  7.00000e-08

binary raw file "3-stage_cs-vco_tb_WITH_APPENDWRITE.raw"
Reset re-loads circuit ** sch_path: /home/darunix/gitsandboxes/vco/vco/xschem/3-stage_cs-vco_tb.sch

Circuit: ** sch_path: /home/darunix/gitsandboxes/vco/vco/xschem/3-stage_cs-vco_tb.sch

option SCALE: Scale is set to 1e-06 for instance and model parameters
Doing analysis at TEMP = 27.000000 and TNOM = 27.000000

Warning: v1: no DC value, transient time 0 value used

Initial Transient Solution
--------------------------

Node                                   Voltage
----                                   -------
x1.net7                                    1.8
x1.net6                            1.12909e-06
net1                                       1.8
net2                                         0
out                                6.80528e-09
x1.vgp                                  1.6571
vctrl                                        0
x1.net8                               0.966293
x1.ng3                             3.93259e-09
x1.net5                                    1.8
x1.ng0                             3.93259e-09
x1.vco_switch_n_v2_0/selb          2.69671e-09
sel0                                       1.8
x1.ng1                             3.93259e-09
x1.vco_switch_n_v2_1/selb          2.69671e-09
sel1                                       1.8
x1.ng2                             3.93259e-09
x1.vco_switch_n_v2_2/selb          2.69671e-09
sel2                                       1.8
x1.vco_switch_n_v2_3/selb          2.69671e-09
sel3                                       1.8
x1.net3                               0.966293
x1.net2                                1.79523
x1.net4                              0.0839479
x1.pg3                                  1.6571
x1.pg0                                  1.6571
x1.vco_switch_p_0/selb             2.69671e-09
x1.pg1                                  1.6571
x1.pg2                                  1.6571
x1.vco_switch_p_2/selb             2.69671e-09
x1.vco_switch_p_1/selb             2.69671e-09
x1.vco_switch_p_3/selb             2.69671e-09
vdd                                        1.8
buf1_out                           2.60627e-09
net4                                4.9501e-09
net5                                4.9501e-09
net3                                4.9501e-09
buf16_out                           4.9501e-09
v1#branch                          1.44058e-11
vmeas_current_gnd#branch            1.2222e-05
vmeas_current_vdd#branch            1.2222e-05
v2#branch                         -1.22221e-05
vsel3#branch                                 0
vsel2#branch                                 0
vsel1#branch                                 0
vsel0#branch                                 0


No. of Data Rows : 7020

  Measurements for Transient Analysis

tvco_outside_while  =  2.481102e-10 targ=  1.460580e-08 trig=  1.435769e-08
fvco_outside_while  =  4.03047e+09
supply_current_rms_outside_while=   4.83009e-04 from=  1.00000e-08 to=  4.00000e-08
ground_current_rms_outside_while=   4.83304e-04 from=  1.00000e-08 to=  4.00000e-08
vctrl_avg_outside_while=  1.000000e+00 from=  1.000000e-08 to=  2.000500e-08
vhigh_outside_while =  1.902348e+00 at=  1.963500e-08
vlow_outside_while  =  -8.560364e-02 at=  1.755500e-08
peak_to_peak_outside_while=  1.98795e+00
supply_current_rms  =   4.75216e-04 from=  0.00000e+00 to=  7.00000e-08

binary raw file "3-stage_cs-vco_tb_WITH_APPENDWRITE.raw"
Reset re-loads circuit ** sch_path: /home/darunix/gitsandboxes/vco/vco/xschem/3-stage_cs-vco_tb.sch

Circuit: ** sch_path: /home/darunix/gitsandboxes/vco/vco/xschem/3-stage_cs-vco_tb.sch

option SCALE: Scale is set to 1e-06 for instance and model parameters
Doing analysis at TEMP = 27.000000 and TNOM = 27.000000

Warning: v1: no DC value, transient time 0 value used

Initial Transient Solution
--------------------------

Node                                   Voltage
----                                   -------
x1.net7                                    1.8
x1.net6                            1.12909e-06
net1                                       1.8
net2                                         0
out                                6.80528e-09
x1.vgp                                  1.6571
vctrl                                        0
x1.net8                               0.966293
x1.ng3                             3.93259e-09
x1.net5                                    1.8
x1.ng0                             3.93259e-09
x1.vco_switch_n_v2_0/selb          2.69671e-09
sel0                                       1.8
x1.ng1                             3.93259e-09
x1.vco_switch_n_v2_1/selb          2.69671e-09
sel1                                       1.8
x1.ng2                             3.93259e-09
x1.vco_switch_n_v2_2/selb          2.69671e-09
sel2                                       1.8
x1.vco_switch_n_v2_3/selb          2.69671e-09
sel3                                       1.8
x1.net3                               0.966293
x1.net2                                1.79523
x1.net4                              0.0839479
x1.pg3                                  1.6571
x1.pg0                                  1.6571
x1.vco_switch_p_0/selb             2.69671e-09
x1.pg1                                  1.6571
x1.pg2                                  1.6571
x1.vco_switch_p_2/selb             2.69671e-09
x1.vco_switch_p_1/selb             2.69671e-09
x1.vco_switch_p_3/selb             2.69671e-09
vdd                                        1.8
buf1_out                           2.60627e-09
net4                                4.9501e-09
net5                                4.9501e-09
net3                                4.9501e-09
buf16_out                           4.9501e-09
v1#branch                          1.44058e-11
vmeas_current_gnd#branch            1.2222e-05
vmeas_current_vdd#branch            1.2222e-05
v2#branch                         -1.22221e-05
vsel3#branch                                 0
vsel2#branch                                 0
vsel1#branch                                 0
vsel0#branch                                 0


No. of Data Rows : 7020

  Measurements for Transient Analysis

tvco_outside_while  =  2.452788e-10 targ=  1.442304e-08 trig=  1.417776e-08
fvco_outside_while  =  4.07699e+09
supply_current_rms_outside_while=   5.06048e-04 from=  1.00000e-08 to=  4.00000e-08
ground_current_rms_outside_while=   5.07875e-04 from=  1.00000e-08 to=  4.00000e-08
vctrl_avg_outside_while=  1.100000e+00 from=  1.000000e-08 to=  2.000500e-08
vhigh_outside_while =  1.886091e+00 at=  1.473500e-08
vlow_outside_while  =  -8.573665e-02 at=  1.071500e-08
peak_to_peak_outside_while=  1.97183e+00
supply_current_rms  =   4.98121e-04 from=  0.00000e+00 to=  7.00000e-08

binary raw file "3-stage_cs-vco_tb_WITH_APPENDWRITE.raw"
Reset re-loads circuit ** sch_path: /home/darunix/gitsandboxes/vco/vco/xschem/3-stage_cs-vco_tb.sch

Circuit: ** sch_path: /home/darunix/gitsandboxes/vco/vco/xschem/3-stage_cs-vco_tb.sch

option SCALE: Scale is set to 1e-06 for instance and model parameters
Doing analysis at TEMP = 27.000000 and TNOM = 27.000000

Warning: v1: no DC value, transient time 0 value used

Initial Transient Solution
--------------------------

Node                                   Voltage
----                                   -------
x1.net7                                    1.8
x1.net6                            1.12909e-06
net1                                       1.8
net2                                         0
out                                6.80528e-09
x1.vgp                                  1.6571
vctrl                                        0
x1.net8                               0.966293
x1.ng3                             3.93259e-09
x1.net5                                    1.8
x1.ng0                             3.93259e-09
x1.vco_switch_n_v2_0/selb          2.69671e-09
sel0                                       1.8
x1.ng1                             3.93259e-09
x1.vco_switch_n_v2_1/selb          2.69671e-09
sel1                                       1.8
x1.ng2                             3.93259e-09
x1.vco_switch_n_v2_2/selb          2.69671e-09
sel2                                       1.8
x1.vco_switch_n_v2_3/selb          2.69671e-09
sel3                                       1.8
x1.net3                               0.966293
x1.net2                                1.79523
x1.net4                              0.0839479
x1.pg3                                  1.6571
x1.pg0                                  1.6571
x1.vco_switch_p_0/selb             2.69671e-09
x1.pg1                                  1.6571
x1.pg2                                  1.6571
x1.vco_switch_p_2/selb             2.69671e-09
x1.vco_switch_p_1/selb             2.69671e-09
x1.vco_switch_p_3/selb             2.69671e-09
vdd                                        1.8
buf1_out                           2.60627e-09
net4                                4.9501e-09
net5                                4.9501e-09
net3                                4.9501e-09
buf16_out                           4.9501e-09
v1#branch                          1.44058e-11
vmeas_current_gnd#branch            1.2222e-05
vmeas_current_vdd#branch            1.2222e-05
v2#branch                         -1.22221e-05
vsel3#branch                                 0
vsel2#branch                                 0
vsel1#branch                                 0
vsel0#branch                                 0


No. of Data Rows : 7020

  Measurements for Transient Analysis

tvco_outside_while  =  2.439906e-10 targ=  1.432154e-08 trig=  1.407755e-08
fvco_outside_while  =  4.09852e+09
supply_current_rms_outside_while=   5.25318e-04 from=  1.00000e-08 to=  4.00000e-08
ground_current_rms_outside_while=   5.28107e-04 from=  1.00000e-08 to=  4.00000e-08
vctrl_avg_outside_while=  1.200000e+00 from=  1.000000e-08 to=  2.000500e-08
vhigh_outside_while =  1.873735e+00 at=  1.609500e-08
vlow_outside_while  =  -8.575339e-02 at=  1.722500e-08
peak_to_peak_outside_while=  1.95949e+00
supply_current_rms  =   5.17242e-04 from=  0.00000e+00 to=  7.00000e-08

binary raw file "3-stage_cs-vco_tb_WITH_APPENDWRITE.raw"
Reset re-loads circuit ** sch_path: /home/darunix/gitsandboxes/vco/vco/xschem/3-stage_cs-vco_tb.sch

Circuit: ** sch_path: /home/darunix/gitsandboxes/vco/vco/xschem/3-stage_cs-vco_tb.sch

option SCALE: Scale is set to 1e-06 for instance and model parameters
Doing analysis at TEMP = 27.000000 and TNOM = 27.000000

Warning: v1: no DC value, transient time 0 value used

Initial Transient Solution
--------------------------

Node                                   Voltage
----                                   -------
x1.net7                                    1.8
x1.net6                            1.12909e-06
net1                                       1.8
net2                                         0
out                                6.80528e-09
x1.vgp                                  1.6571
vctrl                                        0
x1.net8                               0.966293
x1.ng3                             3.93259e-09
x1.net5                                    1.8
x1.ng0                             3.93259e-09
x1.vco_switch_n_v2_0/selb          2.69671e-09
sel0                                       1.8
x1.ng1                             3.93259e-09
x1.vco_switch_n_v2_1/selb          2.69671e-09
sel1                                       1.8
x1.ng2                             3.93259e-09
x1.vco_switch_n_v2_2/selb          2.69671e-09
sel2                                       1.8
x1.vco_switch_n_v2_3/selb          2.69671e-09
sel3                                       1.8
x1.net3                               0.966293
x1.net2                                1.79523
x1.net4                              0.0839479
x1.pg3                                  1.6571
x1.pg0                                  1.6571
x1.vco_switch_p_0/selb             2.69671e-09
x1.pg1                                  1.6571
x1.pg2                                  1.6571
x1.vco_switch_p_2/selb             2.69671e-09
x1.vco_switch_p_1/selb             2.69671e-09
x1.vco_switch_p_3/selb             2.69671e-09
vdd                                        1.8
buf1_out                           2.60627e-09
net4                                4.9501e-09
net5                                4.9501e-09
net3                                4.9501e-09
buf16_out                           4.9501e-09
v1#branch                          1.44058e-11
vmeas_current_gnd#branch            1.2222e-05
vmeas_current_vdd#branch            1.2222e-05
v2#branch                         -1.22221e-05
vsel3#branch                                 0
vsel2#branch                                 0
vsel1#branch                                 0
vsel0#branch                                 0


No. of Data Rows : 7020

  Measurements for Transient Analysis

tvco_outside_while  =  2.434753e-10 targ=  1.426312e-08 trig=  1.401965e-08
fvco_outside_while  =  4.10719e+09
supply_current_rms_outside_while=   5.35285e-04 from=  1.00000e-08 to=  4.00000e-08
ground_current_rms_outside_while=   5.37410e-04 from=  1.00000e-08 to=  4.00000e-08
vctrl_avg_outside_while=  1.300000e+00 from=  1.000000e-08 to=  2.000500e-08
vhigh_outside_while =  1.868167e+00 at=  1.286500e-08
vlow_outside_while  =  -8.571639e-02 at=  1.277500e-08
peak_to_peak_outside_while=  1.95388e+00
supply_current_rms  =   5.27396e-04 from=  0.00000e+00 to=  7.00000e-08

binary raw file "3-stage_cs-vco_tb_WITH_APPENDWRITE.raw"
Reset re-loads circuit ** sch_path: /home/darunix/gitsandboxes/vco/vco/xschem/3-stage_cs-vco_tb.sch

Circuit: ** sch_path: /home/darunix/gitsandboxes/vco/vco/xschem/3-stage_cs-vco_tb.sch

option SCALE: Scale is set to 1e-06 for instance and model parameters
Doing analysis at TEMP = 27.000000 and TNOM = 27.000000

Warning: v1: no DC value, transient time 0 value used

Initial Transient Solution
--------------------------

Node                                   Voltage
----                                   -------
x1.net7                                    1.8
x1.net6                            1.12909e-06
net1                                       1.8
net2                                         0
out                                6.80528e-09
x1.vgp                                  1.6571
vctrl                                        0
x1.net8                               0.966293
x1.ng3                             3.93259e-09
x1.net5                                    1.8
x1.ng0                             3.93259e-09
x1.vco_switch_n_v2_0/selb          2.69671e-09
sel0                                       1.8
x1.ng1                             3.93259e-09
x1.vco_switch_n_v2_1/selb          2.69671e-09
sel1                                       1.8
x1.ng2                             3.93259e-09
x1.vco_switch_n_v2_2/selb          2.69671e-09
sel2                                       1.8
x1.vco_switch_n_v2_3/selb          2.69671e-09
sel3                                       1.8
x1.net3                               0.966293
x1.net2                                1.79523
x1.net4                              0.0839479
x1.pg3                                  1.6571
x1.pg0                                  1.6571
x1.vco_switch_p_0/selb             2.69671e-09
x1.pg1                                  1.6571
x1.pg2                                  1.6571
x1.vco_switch_p_2/selb             2.69671e-09
x1.vco_switch_p_1/selb             2.69671e-09
x1.vco_switch_p_3/selb             2.69671e-09
vdd                                        1.8
buf1_out                           2.60627e-09
net4                                4.9501e-09
net5                                4.9501e-09
net3                                4.9501e-09
buf16_out                           4.9501e-09
v1#branch                          1.44058e-11
vmeas_current_gnd#branch            1.2222e-05
vmeas_current_vdd#branch            1.2222e-05
v2#branch                         -1.22221e-05
vsel3#branch                                 0
vsel2#branch                                 0
vsel1#branch                                 0
vsel0#branch                                 0


No. of Data Rows : 7020

  Measurements for Transient Analysis

tvco_outside_while  =  2.433372e-10 targ=  1.422480e-08 trig=  1.398147e-08
fvco_outside_while  =  4.10952e+09
supply_current_rms_outside_while=   5.42015e-04 from=  1.00000e-08 to=  4.00000e-08
ground_current_rms_outside_while=   5.43894e-04 from=  1.00000e-08 to=  4.00000e-08
vctrl_avg_outside_while=  1.400000e+00 from=  1.000000e-08 to=  2.000500e-08
vhigh_outside_while =  1.865134e+00 at=  1.258500e-08
vlow_outside_while  =  -8.570167e-02 at=  1.322500e-08
peak_to_peak_outside_while=  1.95084e+00
supply_current_rms  =   5.33892e-04 from=  0.00000e+00 to=  7.00000e-08

binary raw file "3-stage_cs-vco_tb_WITH_APPENDWRITE.raw"
Reset re-loads circuit ** sch_path: /home/darunix/gitsandboxes/vco/vco/xschem/3-stage_cs-vco_tb.sch

Circuit: ** sch_path: /home/darunix/gitsandboxes/vco/vco/xschem/3-stage_cs-vco_tb.sch

option SCALE: Scale is set to 1e-06 for instance and model parameters
Doing analysis at TEMP = 27.000000 and TNOM = 27.000000

Warning: v1: no DC value, transient time 0 value used

Initial Transient Solution
--------------------------

Node                                   Voltage
----                                   -------
x1.net7                                    1.8
x1.net6                            1.12909e-06
net1                                       1.8
net2                                         0
out                                6.80528e-09
x1.vgp                                  1.6571
vctrl                                        0
x1.net8                               0.966293
x1.ng3                             3.93259e-09
x1.net5                                    1.8
x1.ng0                             3.93259e-09
x1.vco_switch_n_v2_0/selb          2.69671e-09
sel0                                       1.8
x1.ng1                             3.93259e-09
x1.vco_switch_n_v2_1/selb          2.69671e-09
sel1                                       1.8
x1.ng2                             3.93259e-09
x1.vco_switch_n_v2_2/selb          2.69671e-09
sel2                                       1.8
x1.vco_switch_n_v2_3/selb          2.69671e-09
sel3                                       1.8
x1.net3                               0.966293
x1.net2                                1.79523
x1.net4                              0.0839479
x1.pg3                                  1.6571
x1.pg0                                  1.6571
x1.vco_switch_p_0/selb             2.69671e-09
x1.pg1                                  1.6571
x1.pg2                                  1.6571
x1.vco_switch_p_2/selb             2.69671e-09
x1.vco_switch_p_1/selb             2.69671e-09
x1.vco_switch_p_3/selb             2.69671e-09
vdd                                        1.8
buf1_out                           2.60627e-09
net4                                4.9501e-09
net5                                4.9501e-09
net3                                4.9501e-09
buf16_out                           4.9501e-09
v1#branch                          1.44058e-11
vmeas_current_gnd#branch            1.2222e-05
vmeas_current_vdd#branch            1.2222e-05
v2#branch                         -1.22221e-05
vsel3#branch                                 0
vsel2#branch                                 0
vsel1#branch                                 0
vsel0#branch                                 0


No. of Data Rows : 7020

  Measurements for Transient Analysis

tvco_outside_while  =  2.429655e-10 targ=  1.419742e-08 trig=  1.395446e-08
fvco_outside_while  =  4.11581e+09
supply_current_rms_outside_while=   5.47344e-04 from=  1.00000e-08 to=  4.00000e-08
ground_current_rms_outside_while=   5.48572e-04 from=  1.00000e-08 to=  4.00000e-08
vctrl_avg_outside_while=  1.500000e+00 from=  1.000000e-08 to=  2.000500e-08
vhigh_outside_while =  1.863160e+00 at=  1.304500e-08
vlow_outside_while  =  -8.567741e-02 at=  1.708500e-08
peak_to_peak_outside_while=  1.94884e+00
supply_current_rms  =   5.38944e-04 from=  0.00000e+00 to=  7.00000e-08

binary raw file "3-stage_cs-vco_tb_WITH_APPENDWRITE.raw"
Reset re-loads circuit ** sch_path: /home/darunix/gitsandboxes/vco/vco/xschem/3-stage_cs-vco_tb.sch

Circuit: ** sch_path: /home/darunix/gitsandboxes/vco/vco/xschem/3-stage_cs-vco_tb.sch

option SCALE: Scale is set to 1e-06 for instance and model parameters
Doing analysis at TEMP = 27.000000 and TNOM = 27.000000

Warning: v1: no DC value, transient time 0 value used

Initial Transient Solution
--------------------------

Node                                   Voltage
----                                   -------
x1.net7                                    1.8
x1.net6                            1.12909e-06
net1                                       1.8
net2                                         0
out                                6.80528e-09
x1.vgp                                  1.6571
vctrl                                        0
x1.net8                               0.966293
x1.ng3                             3.93259e-09
x1.net5                                    1.8
x1.ng0                             3.93259e-09
x1.vco_switch_n_v2_0/selb          2.69671e-09
sel0                                       1.8
x1.ng1                             3.93259e-09
x1.vco_switch_n_v2_1/selb          2.69671e-09
sel1                                       1.8
x1.ng2                             3.93259e-09
x1.vco_switch_n_v2_2/selb          2.69671e-09
sel2                                       1.8
x1.vco_switch_n_v2_3/selb          2.69671e-09
sel3                                       1.8
x1.net3                               0.966293
x1.net2                                1.79523
x1.net4                              0.0839479
x1.pg3                                  1.6571
x1.pg0                                  1.6571
x1.vco_switch_p_0/selb             2.69671e-09
x1.pg1                                  1.6571
x1.pg2                                  1.6571
x1.vco_switch_p_2/selb             2.69671e-09
x1.vco_switch_p_1/selb             2.69671e-09
x1.vco_switch_p_3/selb             2.69671e-09
vdd                                        1.8
buf1_out                           2.60627e-09
net4                                4.9501e-09
net5                                4.9501e-09
net3                                4.9501e-09
buf16_out                           4.9501e-09
v1#branch                          1.44058e-11
vmeas_current_gnd#branch            1.2222e-05
vmeas_current_vdd#branch            1.2222e-05
v2#branch                         -1.22221e-05
vsel3#branch                                 0
vsel2#branch                                 0
vsel1#branch                                 0
vsel0#branch                                 0


No. of Data Rows : 7020

  Measurements for Transient Analysis

tvco_outside_while  =  2.428288e-10 targ=  1.417689e-08 trig=  1.393406e-08
fvco_outside_while  =  4.11813e+09
supply_current_rms_outside_while=   5.50409e-04 from=  1.00000e-08 to=  4.00000e-08
ground_current_rms_outside_while=   5.51593e-04 from=  1.00000e-08 to=  4.00000e-08
vctrl_avg_outside_while=  1.600000e+00 from=  1.000000e-08 to=  2.000500e-08
vhigh_outside_while =  1.861770e+00 at=  1.836500e-08
vlow_outside_while  =  -8.566965e-02 at=  1.730500e-08
peak_to_peak_outside_while=  1.94744e+00
supply_current_rms  =   5.42178e-04 from=  0.00000e+00 to=  7.00000e-08

binary raw file "3-stage_cs-vco_tb_WITH_APPENDWRITE.raw"
Reset re-loads circuit ** sch_path: /home/darunix/gitsandboxes/vco/vco/xschem/3-stage_cs-vco_tb.sch

Circuit: ** sch_path: /home/darunix/gitsandboxes/vco/vco/xschem/3-stage_cs-vco_tb.sch

option SCALE: Scale is set to 1e-06 for instance and model parameters
Doing analysis at TEMP = 27.000000 and TNOM = 27.000000

Warning: v1: no DC value, transient time 0 value used

Initial Transient Solution
--------------------------

Node                                   Voltage
----                                   -------
x1.net7                                    1.8
x1.net6                            1.12909e-06
net1                                       1.8
net2                                         0
out                                6.80528e-09
x1.vgp                                  1.6571
vctrl                                        0
x1.net8                               0.966293
x1.ng3                             3.93259e-09
x1.net5                                    1.8
x1.ng0                             3.93259e-09
x1.vco_switch_n_v2_0/selb          2.69671e-09
sel0                                       1.8
x1.ng1                             3.93259e-09
x1.vco_switch_n_v2_1/selb          2.69671e-09
sel1                                       1.8
x1.ng2                             3.93259e-09
x1.vco_switch_n_v2_2/selb          2.69671e-09
sel2                                       1.8
x1.vco_switch_n_v2_3/selb          2.69671e-09
sel3                                       1.8
x1.net3                               0.966293
x1.net2                                1.79523
x1.net4                              0.0839479
x1.pg3                                  1.6571
x1.pg0                                  1.6571
x1.vco_switch_p_0/selb             2.69671e-09
x1.pg1                                  1.6571
x1.pg2                                  1.6571
x1.vco_switch_p_2/selb             2.69671e-09
x1.vco_switch_p_1/selb             2.69671e-09
x1.vco_switch_p_3/selb             2.69671e-09
vdd                                        1.8
buf1_out                           2.60627e-09
net4                                4.9501e-09
net5                                4.9501e-09
net3                                4.9501e-09
buf16_out                           4.9501e-09
v1#branch                          1.44058e-11
vmeas_current_gnd#branch            1.2222e-05
vmeas_current_vdd#branch            1.2222e-05
v2#branch                         -1.22221e-05
vsel3#branch                                 0
vsel2#branch                                 0
vsel1#branch                                 0
vsel0#branch                                 0


No. of Data Rows : 7020

  Measurements for Transient Analysis

tvco_outside_while  =  2.424671e-10 targ=  1.416083e-08 trig=  1.391836e-08
fvco_outside_while  =  4.12427e+09
supply_current_rms_outside_while=   5.53132e-04 from=  1.00000e-08 to=  4.00000e-08
ground_current_rms_outside_while=   5.54438e-04 from=  1.00000e-08 to=  4.00000e-08
vctrl_avg_outside_while=  1.700000e+00 from=  1.000000e-08 to=  2.000500e-08
vhigh_outside_while =  1.860742e+00 at=  1.349500e-08
vlow_outside_while  =  -8.565540e-02 at=  1.898500e-08
peak_to_peak_outside_while=  1.94640e+00
supply_current_rms  =   5.44876e-04 from=  0.00000e+00 to=  7.00000e-08

binary raw file "3-stage_cs-vco_tb_WITH_APPENDWRITE.raw"
Reset re-loads circuit ** sch_path: /home/darunix/gitsandboxes/vco/vco/xschem/3-stage_cs-vco_tb.sch

Circuit: ** sch_path: /home/darunix/gitsandboxes/vco/vco/xschem/3-stage_cs-vco_tb.sch

option SCALE: Scale is set to 1e-06 for instance and model parameters
Doing analysis at TEMP = 27.000000 and TNOM = 27.000000

Warning: v1: no DC value, transient time 0 value used

Initial Transient Solution
--------------------------

Node                                   Voltage
----                                   -------
x1.net7                                    1.8
x1.net6                            1.12909e-06
net1                                       1.8
net2                                         0
out                                6.80528e-09
x1.vgp                                  1.6571
vctrl                                        0
x1.net8                               0.966293
x1.ng3                             3.93259e-09
x1.net5                                    1.8
x1.ng0                             3.93259e-09
x1.vco_switch_n_v2_0/selb          2.69671e-09
sel0                                       1.8
x1.ng1                             3.93259e-09
x1.vco_switch_n_v2_1/selb          2.69671e-09
sel1                                       1.8
x1.ng2                             3.93259e-09
x1.vco_switch_n_v2_2/selb          2.69671e-09
sel2                                       1.8
x1.vco_switch_n_v2_3/selb          2.69671e-09
sel3                                       1.8
x1.net3                               0.966293
x1.net2                                1.79523
x1.net4                              0.0839479
x1.pg3                                  1.6571
x1.pg0                                  1.6571
x1.vco_switch_p_0/selb             2.69671e-09
x1.pg1                                  1.6571
x1.pg2                                  1.6571
x1.vco_switch_p_2/selb             2.69671e-09
x1.vco_switch_p_1/selb             2.69671e-09
x1.vco_switch_p_3/selb             2.69671e-09
vdd                                        1.8
buf1_out                           2.60627e-09
net4                                4.9501e-09
net5                                4.9501e-09
net3                                4.9501e-09
buf16_out                           4.9501e-09
v1#branch                          1.44058e-11
vmeas_current_gnd#branch            1.2222e-05
vmeas_current_vdd#branch            1.2222e-05
v2#branch                         -1.22221e-05
vsel3#branch                                 0
vsel2#branch                                 0
vsel1#branch                                 0
vsel0#branch                                 0


No. of Data Rows : 7020

  Measurements for Transient Analysis

tvco_outside_while  =  2.424380e-10 targ=  1.414821e-08 trig=  1.390577e-08
fvco_outside_while  =  4.12477e+09
supply_current_rms_outside_while=   5.54965e-04 from=  1.00000e-08 to=  4.00000e-08
ground_current_rms_outside_while=   5.56177e-04 from=  1.00000e-08 to=  4.00000e-08
vctrl_avg_outside_while=  1.800000e+00 from=  1.000000e-08 to=  2.000500e-08
vhigh_outside_while =  1.859954e+00 at=  1.469500e-08
vlow_outside_while  =  -8.564857e-02 at=  1.945500e-08
peak_to_peak_outside_while=  1.94560e+00
supply_current_rms  =   5.46738e-04 from=  0.00000e+00 to=  7.00000e-08

binary raw file "3-stage_cs-vco_tb_WITH_APPENDWRITE.raw"
Doing analysis at TEMP = 27.000000 and TNOM = 27.000000

Warning: v1: no DC value, transient time 0 value used

  Measurements for Transient Analysis

tvco_outside_while  =  2.424380e-10 targ=  1.414821e-08 trig=  1.390577e-08
Original line no.: 0, new internal line no.: 12460:
insertnumber: fails.
  s = ".meas tran fvco_outside_while param=    4.124765509710453e+09   " u="  4.124765509710453e+09  " id=0
fvco_outside_while  =  4.12477e+09
supply_current_rms_outside_while=   5.54965e-04 from=  1.00000e-08 to=  4.00000e-08
ground_current_rms_outside_while=   5.56177e-04 from=  1.00000e-08 to=  4.00000e-08
vctrl_avg_outside_while=  1.800000e+00 from=  1.000000e-08 to=  2.000500e-08
vhigh_outside_while =  1.859954e+00 at=  1.469500e-08
vlow_outside_while  =  -8.564857e-02 at=  1.945500e-08
Original line no.: 0, new internal line no.: 12466:
insertnumber: fails.
  s = ".meas tran peak_to_peak_outside_while param=    1.945602402679072e+00   " u="  1.945602402679072e+00  " id=0
peak_to_peak_outside_while=  1.94560e+00
supply_current_rms  =   5.46738e-04 from=  0.00000e+00 to=  7.00000e-08


Total analysis time (seconds) = 15.5163

Total CPU time (seconds) = 298.935 

Total DRAM available = 7952.234 MB.
DRAM currently available = 3992.711 MB.
Maximum ngspice program size =  684.805 MB.
Current ngspice program size =  665.617 MB.

Shared ngspice pages =    8.531 MB.
Text (code) pages =    7.879 MB.
Stack = 0 bytes.
Library pages =  657.320 MB.

