
Compatibility modes selected: hs a

Warning: m=xx on .subckt line will override multiplier m hierarchy!


Circuit: ** sch_path: /home/darunix/gitsandboxes/vco/vco/xschem/3-stage_cs-vco_tb.sch

option SCALE: Scale is set to 1e-06 for instance and model parameters
Reset re-loads circuit ** sch_path: /home/darunix/gitsandboxes/vco/vco/xschem/3-stage_cs-vco_tb.sch

Circuit: ** sch_path: /home/darunix/gitsandboxes/vco/vco/xschem/3-stage_cs-vco_tb.sch

option SCALE: Scale is set to 1e-06 for instance and model parameters
Reset re-loads circuit ** sch_path: /home/darunix/gitsandboxes/vco/vco/xschem/3-stage_cs-vco_tb.sch

Circuit: ** sch_path: /home/darunix/gitsandboxes/vco/vco/xschem/3-stage_cs-vco_tb.sch

option SCALE: Scale is set to 1e-06 for instance and model parameters
Doing analysis at TEMP = 27.000000 and TNOM = 27.000000

Warning: v1: no DC value, transient time 0 value used

Initial Transient Solution
--------------------------

Node                                   Voltage
----                                   -------
x1.net7                                    1.8
x1.net6                            1.16209e-06
net1                                       1.8
net2                                         0
out                                6.80528e-09
x1.vgp                                 1.66618
vctrl                                        0
x1.net8                               0.938142
x1.ng3                             9.63187e-09
x1.ng0                             3.93259e-09
x1.vco_switch_n_v2_0/selb          2.69671e-09
sel0                                       1.8
x1.ng1                             3.93259e-09
x1.vco_switch_n_v2_1/selb          2.69671e-09
sel1                                       1.8
x1.ng2                             9.63187e-09
x1.vco_switch_n_v2_2/selb                  1.8
sel2                                         0
x1.vco_switch_n_v2_3/selb                  1.8
sel3                                         0
x1.net3                               0.938142
x1.net5                                    1.8
x1.net2                                1.79219
x1.net4                               0.130516
x1.pg3                                     1.8
x1.pg0                                 1.66618
x1.vco_switch_p_0/selb             2.69671e-09
x1.pg1                                 1.66618
x1.pg2                                     1.8
x1.vco_switch_p_2/selb                     1.8
x1.vco_switch_p_1/selb             2.69671e-09
x1.vco_switch_p_3/selb                     1.8
vdd                                        1.8
buf1_out                           2.60627e-09
net4                                4.9501e-09
net5                                4.9501e-09
net3                                4.9501e-09
buf16_out                           4.9501e-09
v1#branch                          1.60237e-11
vmeas_current_gnd#branch           1.37538e-05
vmeas_current_vdd#branch           1.37538e-05
v2#branch                         -1.37539e-05
vsel3#branch                                 0
vsel2#branch                                 0
vsel1#branch                                 0
vsel0#branch                                 0


No. of Data Rows : 7020

  Measurements for Transient Analysis


Error: measure  tvco_outside_while  (TRIG) : out of interval
 .meas tran tvco_outside_while trig v(out) val=0.5*1.8 rise=50 targ v(out) val=0.5*1.8 rise=51 failed!

Original line no.: 0, new internal line no.: 12460:
Undefined number [tvco_outside_while]
Original line no.: 0, new internal line no.: 12460:
Cannot compute substitute
fvco_outside_while  =   failed
supply_current_rms_outside_while=   4.60947e-05 from=  1.00000e-08 to=  4.00000e-08
ground_current_rms_outside_while=   8.63628e-05 from=  1.00000e-08 to=  4.00000e-08
vctrl_avg_outside_while=  0.000000e+00 from=  1.000000e-08 to=  2.000500e-08
vhigh_outside_while =  1.706005e-05 at=  1.000500e-08
vlow_outside_while  =  -1.702488e-05 at=  1.001500e-08
peak_to_peak_outside_while=  3.40849e-05
supply_current_rms  =   6.79133e-05 from=  0.00000e+00 to=  7.00000e-08

binary raw file "3-stage_cs-vco_tb_WITH_APPENDWRITE.raw"
Reset re-loads circuit ** sch_path: /home/darunix/gitsandboxes/vco/vco/xschem/3-stage_cs-vco_tb.sch

Circuit: ** sch_path: /home/darunix/gitsandboxes/vco/vco/xschem/3-stage_cs-vco_tb.sch

option SCALE: Scale is set to 1e-06 for instance and model parameters
Doing analysis at TEMP = 27.000000 and TNOM = 27.000000

Warning: v1: no DC value, transient time 0 value used

Initial Transient Solution
--------------------------

Node                                   Voltage
----                                   -------
x1.net7                                    1.8
x1.net6                            1.16209e-06
net1                                       1.8
net2                                         0
out                                6.80528e-09
x1.vgp                                 1.66618
vctrl                                        0
x1.net8                               0.938142
x1.ng3                             9.63187e-09
x1.ng0                             3.93259e-09
x1.vco_switch_n_v2_0/selb          2.69671e-09
sel0                                       1.8
x1.ng1                             3.93259e-09
x1.vco_switch_n_v2_1/selb          2.69671e-09
sel1                                       1.8
x1.ng2                             9.63187e-09
x1.vco_switch_n_v2_2/selb                  1.8
sel2                                         0
x1.vco_switch_n_v2_3/selb                  1.8
sel3                                         0
x1.net3                               0.938142
x1.net5                                    1.8
x1.net2                                1.79219
x1.net4                               0.130516
x1.pg3                                     1.8
x1.pg0                                 1.66618
x1.vco_switch_p_0/selb             2.69671e-09
x1.pg1                                 1.66618
x1.pg2                                     1.8
x1.vco_switch_p_2/selb                     1.8
x1.vco_switch_p_1/selb             2.69671e-09
x1.vco_switch_p_3/selb                     1.8
vdd                                        1.8
buf1_out                           2.60627e-09
net4                                4.9501e-09
net5                                4.9501e-09
net3                                4.9501e-09
buf16_out                           4.9501e-09
v1#branch                          1.60237e-11
vmeas_current_gnd#branch           1.37538e-05
vmeas_current_vdd#branch           1.37538e-05
v2#branch                         -1.37539e-05
vsel3#branch                                 0
vsel2#branch                                 0
vsel1#branch                                 0
vsel0#branch                                 0


No. of Data Rows : 7020

  Measurements for Transient Analysis


Error: measure  tvco_outside_while  (TRIG) : out of interval
 .meas tran tvco_outside_while trig v(out) val=0.5*1.8 rise=50 targ v(out) val=0.5*1.8 rise=51 failed!

Original line no.: 0, new internal line no.: 12460:
Undefined number [tvco_outside_while]
Original line no.: 0, new internal line no.: 12460:
Cannot compute substitute
fvco_outside_while  =   failed
supply_current_rms_outside_while=   6.82229e-05 from=  1.00000e-08 to=  4.00000e-08
ground_current_rms_outside_while=   1.40602e-05 from=  1.00000e-08 to=  4.00000e-08
vctrl_avg_outside_while=  1.000000e-01 from=  1.000000e-08 to=  2.000500e-08
vhigh_outside_while =  1.609131e-06 at=  1.080500e-08
vlow_outside_while  =  -1.595182e-06 at=  1.079500e-08
peak_to_peak_outside_while=  3.20431e-06
supply_current_rms  =   8.32553e-05 from=  0.00000e+00 to=  7.00000e-08

binary raw file "3-stage_cs-vco_tb_WITH_APPENDWRITE.raw"
Reset re-loads circuit ** sch_path: /home/darunix/gitsandboxes/vco/vco/xschem/3-stage_cs-vco_tb.sch

Circuit: ** sch_path: /home/darunix/gitsandboxes/vco/vco/xschem/3-stage_cs-vco_tb.sch

option SCALE: Scale is set to 1e-06 for instance and model parameters
Doing analysis at TEMP = 27.000000 and TNOM = 27.000000

Warning: v1: no DC value, transient time 0 value used

Initial Transient Solution
--------------------------

Node                                   Voltage
----                                   -------
x1.net7                                    1.8
x1.net6                            1.16209e-06
net1                                       1.8
net2                                         0
out                                6.80528e-09
x1.vgp                                 1.66618
vctrl                                        0
x1.net8                               0.938142
x1.ng3                             9.63187e-09
x1.ng0                             3.93259e-09
x1.vco_switch_n_v2_0/selb          2.69671e-09
sel0                                       1.8
x1.ng1                             3.93259e-09
x1.vco_switch_n_v2_1/selb          2.69671e-09
sel1                                       1.8
x1.ng2                             9.63187e-09
x1.vco_switch_n_v2_2/selb                  1.8
sel2                                         0
x1.vco_switch_n_v2_3/selb                  1.8
sel3                                         0
x1.net3                               0.938142
x1.net5                                    1.8
x1.net2                                1.79219
x1.net4                               0.130516
x1.pg3                                     1.8
x1.pg0                                 1.66618
x1.vco_switch_p_0/selb             2.69671e-09
x1.pg1                                 1.66618
x1.pg2                                     1.8
x1.vco_switch_p_2/selb                     1.8
x1.vco_switch_p_1/selb             2.69671e-09
x1.vco_switch_p_3/selb                     1.8
vdd                                        1.8
buf1_out                           2.60627e-09
net4                                4.9501e-09
net5                                4.9501e-09
net3                                4.9501e-09
buf16_out                           4.9501e-09
v1#branch                          1.60237e-11
vmeas_current_gnd#branch           1.37538e-05
vmeas_current_vdd#branch           1.37538e-05
v2#branch                         -1.37539e-05
vsel3#branch                                 0
vsel2#branch                                 0
vsel1#branch                                 0
vsel0#branch                                 0


No. of Data Rows : 7020

  Measurements for Transient Analysis


Error: measure  tvco_outside_while  (TRIG) : out of interval
 .meas tran tvco_outside_while trig v(out) val=0.5*1.8 rise=50 targ v(out) val=0.5*1.8 rise=51 failed!

Original line no.: 0, new internal line no.: 12460:
Undefined number [tvco_outside_while]
Original line no.: 0, new internal line no.: 12460:
Cannot compute substitute
fvco_outside_while  =   failed
supply_current_rms_outside_while=   2.24922e-05 from=  1.00000e-08 to=  4.00000e-08
ground_current_rms_outside_while=   3.91540e-05 from=  1.00000e-08 to=  4.00000e-08
vctrl_avg_outside_while=  2.000000e-01 from=  1.000000e-08 to=  2.000500e-08
vhigh_outside_while =  8.118626e-06 at=  1.000500e-08
vlow_outside_while  =  -8.090762e-06 at=  1.001500e-08
peak_to_peak_outside_while=  1.62094e-05
supply_current_rms  =   5.67121e-05 from=  0.00000e+00 to=  7.00000e-08

binary raw file "3-stage_cs-vco_tb_WITH_APPENDWRITE.raw"
Reset re-loads circuit ** sch_path: /home/darunix/gitsandboxes/vco/vco/xschem/3-stage_cs-vco_tb.sch

Circuit: ** sch_path: /home/darunix/gitsandboxes/vco/vco/xschem/3-stage_cs-vco_tb.sch

option SCALE: Scale is set to 1e-06 for instance and model parameters
Doing analysis at TEMP = 27.000000 and TNOM = 27.000000

Warning: v1: no DC value, transient time 0 value used

Initial Transient Solution
--------------------------

Node                                   Voltage
----                                   -------
x1.net7                                    1.8
x1.net6                            1.16209e-06
net1                                       1.8
net2                                         0
out                                6.80528e-09
x1.vgp                                 1.66618
vctrl                                        0
x1.net8                               0.938142
x1.ng3                             9.63187e-09
x1.ng0                             3.93259e-09
x1.vco_switch_n_v2_0/selb          2.69671e-09
sel0                                       1.8
x1.ng1                             3.93259e-09
x1.vco_switch_n_v2_1/selb          2.69671e-09
sel1                                       1.8
x1.ng2                             9.63187e-09
x1.vco_switch_n_v2_2/selb                  1.8
sel2                                         0
x1.vco_switch_n_v2_3/selb                  1.8
sel3                                         0
x1.net3                               0.938142
x1.net5                                    1.8
x1.net2                                1.79219
x1.net4                               0.130516
x1.pg3                                     1.8
x1.pg0                                 1.66618
x1.vco_switch_p_0/selb             2.69671e-09
x1.pg1                                 1.66618
x1.pg2                                     1.8
x1.vco_switch_p_2/selb                     1.8
x1.vco_switch_p_1/selb             2.69671e-09
x1.vco_switch_p_3/selb                     1.8
vdd                                        1.8
buf1_out                           2.60627e-09
net4                                4.9501e-09
net5                                4.9501e-09
net3                                4.9501e-09
buf16_out                           4.9501e-09
v1#branch                          1.60237e-11
vmeas_current_gnd#branch           1.37538e-05
vmeas_current_vdd#branch           1.37538e-05
v2#branch                         -1.37539e-05
vsel3#branch                                 0
vsel2#branch                                 0
vsel1#branch                                 0
vsel0#branch                                 0


No. of Data Rows : 7020

  Measurements for Transient Analysis


Error: measure  tvco_outside_while  (TRIG) : out of interval
 .meas tran tvco_outside_while trig v(out) val=0.5*1.8 rise=50 targ v(out) val=0.5*1.8 rise=51 failed!

Original line no.: 0, new internal line no.: 12460:
Undefined number [tvco_outside_while]
Original line no.: 0, new internal line no.: 12460:
Cannot compute substitute
fvco_outside_while  =   failed
supply_current_rms_outside_while=   4.23512e-05 from=  1.00000e-08 to=  4.00000e-08
ground_current_rms_outside_while=   3.17464e-05 from=  1.00000e-08 to=  4.00000e-08
vctrl_avg_outside_while=  3.000000e-01 from=  1.000000e-08 to=  2.000500e-08
vhigh_outside_while =  6.730035e-06 at=  1.000500e-08
vlow_outside_while  =  -6.695975e-06 at=  1.001500e-08
peak_to_peak_outside_while=  1.34260e-05
supply_current_rms  =   6.63671e-05 from=  0.00000e+00 to=  7.00000e-08

binary raw file "3-stage_cs-vco_tb_WITH_APPENDWRITE.raw"
Reset re-loads circuit ** sch_path: /home/darunix/gitsandboxes/vco/vco/xschem/3-stage_cs-vco_tb.sch

Circuit: ** sch_path: /home/darunix/gitsandboxes/vco/vco/xschem/3-stage_cs-vco_tb.sch

option SCALE: Scale is set to 1e-06 for instance and model parameters
Doing analysis at TEMP = 27.000000 and TNOM = 27.000000

Warning: v1: no DC value, transient time 0 value used

Initial Transient Solution
--------------------------

Node                                   Voltage
----                                   -------
x1.net7                                    1.8
x1.net6                            1.16209e-06
net1                                       1.8
net2                                         0
out                                6.80528e-09
x1.vgp                                 1.66618
vctrl                                        0
x1.net8                               0.938142
x1.ng3                             9.63187e-09
x1.ng0                             3.93259e-09
x1.vco_switch_n_v2_0/selb          2.69671e-09
sel0                                       1.8
x1.ng1                             3.93259e-09
x1.vco_switch_n_v2_1/selb          2.69671e-09
sel1                                       1.8
x1.ng2                             9.63187e-09
x1.vco_switch_n_v2_2/selb                  1.8
sel2                                         0
x1.vco_switch_n_v2_3/selb                  1.8
sel3                                         0
x1.net3                               0.938142
x1.net5                                    1.8
x1.net2                                1.79219
x1.net4                               0.130516
x1.pg3                                     1.8
x1.pg0                                 1.66618
x1.vco_switch_p_0/selb             2.69671e-09
x1.pg1                                 1.66618
x1.pg2                                     1.8
x1.vco_switch_p_2/selb                     1.8
x1.vco_switch_p_1/selb             2.69671e-09
x1.vco_switch_p_3/selb                     1.8
vdd                                        1.8
buf1_out                           2.60627e-09
net4                                4.9501e-09
net5                                4.9501e-09
net3                                4.9501e-09
buf16_out                           4.9501e-09
v1#branch                          1.60237e-11
vmeas_current_gnd#branch           1.37538e-05
vmeas_current_vdd#branch           1.37538e-05
v2#branch                         -1.37539e-05
vsel3#branch                                 0
vsel2#branch                                 0
vsel1#branch                                 0
vsel0#branch                                 0


No. of Data Rows : 7020

  Measurements for Transient Analysis


Error: measure  tvco_outside_while  (TRIG) : out of interval
 .meas tran tvco_outside_while trig v(out) val=0.5*1.8 rise=50 targ v(out) val=0.5*1.8 rise=51 failed!

Original line no.: 0, new internal line no.: 12460:
Undefined number [tvco_outside_while]
Original line no.: 0, new internal line no.: 12460:
Cannot compute substitute
fvco_outside_while  =   failed
supply_current_rms_outside_while=   5.83047e-05 from=  1.00000e-08 to=  4.00000e-08
ground_current_rms_outside_while=   5.45419e-05 from=  1.00000e-08 to=  4.00000e-08
vctrl_avg_outside_while=  4.000000e-01 from=  1.000000e-08 to=  2.000500e-08
vhigh_outside_while =  2.128271e-06 at=  1.415500e-08
vlow_outside_while  =  -1.368199e-06 at=  1.610500e-08
peak_to_peak_outside_while=  3.49647e-06
supply_current_rms  =   7.60103e-05 from=  0.00000e+00 to=  7.00000e-08

binary raw file "3-stage_cs-vco_tb_WITH_APPENDWRITE.raw"
Reset re-loads circuit ** sch_path: /home/darunix/gitsandboxes/vco/vco/xschem/3-stage_cs-vco_tb.sch

Circuit: ** sch_path: /home/darunix/gitsandboxes/vco/vco/xschem/3-stage_cs-vco_tb.sch

option SCALE: Scale is set to 1e-06 for instance and model parameters
Doing analysis at TEMP = 27.000000 and TNOM = 27.000000

Warning: v1: no DC value, transient time 0 value used

Initial Transient Solution
--------------------------

Node                                   Voltage
----                                   -------
x1.net7                                    1.8
x1.net6                            1.16209e-06
net1                                       1.8
net2                                         0
out                                6.80528e-09
x1.vgp                                 1.66618
vctrl                                        0
x1.net8                               0.938142
x1.ng3                             9.63187e-09
x1.ng0                             3.93259e-09
x1.vco_switch_n_v2_0/selb          2.69671e-09
sel0                                       1.8
x1.ng1                             3.93259e-09
x1.vco_switch_n_v2_1/selb          2.69671e-09
sel1                                       1.8
x1.ng2                             9.63187e-09
x1.vco_switch_n_v2_2/selb                  1.8
sel2                                         0
x1.vco_switch_n_v2_3/selb                  1.8
sel3                                         0
x1.net3                               0.938142
x1.net5                                    1.8
x1.net2                                1.79219
x1.net4                               0.130516
x1.pg3                                     1.8
x1.pg0                                 1.66618
x1.vco_switch_p_0/selb             2.69671e-09
x1.pg1                                 1.66618
x1.pg2                                     1.8
x1.vco_switch_p_2/selb                     1.8
x1.vco_switch_p_1/selb             2.69671e-09
x1.vco_switch_p_3/selb                     1.8
vdd                                        1.8
buf1_out                           2.60627e-09
net4                                4.9501e-09
net5                                4.9501e-09
net3                                4.9501e-09
buf16_out                           4.9501e-09
v1#branch                          1.60237e-11
vmeas_current_gnd#branch           1.37538e-05
vmeas_current_vdd#branch           1.37538e-05
v2#branch                         -1.37539e-05
vsel3#branch                                 0
vsel2#branch                                 0
vsel1#branch                                 0
vsel0#branch                                 0


No. of Data Rows : 7020

  Measurements for Transient Analysis


Error: measure  tvco_outside_while  (TRIG) : out of interval
 .meas tran tvco_outside_while trig v(out) val=0.5*1.8 rise=50 targ v(out) val=0.5*1.8 rise=51 failed!

Original line no.: 0, new internal line no.: 12460:
Undefined number [tvco_outside_while]
Original line no.: 0, new internal line no.: 12460:
Cannot compute substitute
fvco_outside_while  =   failed
supply_current_rms_outside_while=   2.65028e-05 from=  1.00000e-08 to=  4.00000e-08
ground_current_rms_outside_while=   2.81350e-05 from=  1.00000e-08 to=  4.00000e-08
vctrl_avg_outside_while=  5.000000e-01 from=  1.000000e-08 to=  2.000500e-08
vhigh_outside_while =  1.748517e-02 at=  1.900500e-08
vlow_outside_while  =  -2.084944e-02 at=  1.895500e-08
peak_to_peak_outside_while=  3.83346e-02
supply_current_rms  =   5.82305e-05 from=  0.00000e+00 to=  7.00000e-08

binary raw file "3-stage_cs-vco_tb_WITH_APPENDWRITE.raw"
Reset re-loads circuit ** sch_path: /home/darunix/gitsandboxes/vco/vco/xschem/3-stage_cs-vco_tb.sch

Circuit: ** sch_path: /home/darunix/gitsandboxes/vco/vco/xschem/3-stage_cs-vco_tb.sch

option SCALE: Scale is set to 1e-06 for instance and model parameters
Doing analysis at TEMP = 27.000000 and TNOM = 27.000000

Warning: v1: no DC value, transient time 0 value used

Initial Transient Solution
--------------------------

Node                                   Voltage
----                                   -------
x1.net7                                    1.8
x1.net6                            1.16209e-06
net1                                       1.8
net2                                         0
out                                6.80528e-09
x1.vgp                                 1.66618
vctrl                                        0
x1.net8                               0.938142
x1.ng3                             9.63187e-09
x1.ng0                             3.93259e-09
x1.vco_switch_n_v2_0/selb          2.69671e-09
sel0                                       1.8
x1.ng1                             3.93259e-09
x1.vco_switch_n_v2_1/selb          2.69671e-09
sel1                                       1.8
x1.ng2                             9.63187e-09
x1.vco_switch_n_v2_2/selb                  1.8
sel2                                         0
x1.vco_switch_n_v2_3/selb                  1.8
sel3                                         0
x1.net3                               0.938142
x1.net5                                    1.8
x1.net2                                1.79219
x1.net4                               0.130516
x1.pg3                                     1.8
x1.pg0                                 1.66618
x1.vco_switch_p_0/selb             2.69671e-09
x1.pg1                                 1.66618
x1.pg2                                     1.8
x1.vco_switch_p_2/selb                     1.8
x1.vco_switch_p_1/selb             2.69671e-09
x1.vco_switch_p_3/selb                     1.8
vdd                                        1.8
buf1_out                           2.60627e-09
net4                                4.9501e-09
net5                                4.9501e-09
net3                                4.9501e-09
buf16_out                           4.9501e-09
v1#branch                          1.60237e-11
vmeas_current_gnd#branch           1.37538e-05
vmeas_current_vdd#branch           1.37538e-05
v2#branch                         -1.37539e-05
vsel3#branch                                 0
vsel2#branch                                 0
vsel1#branch                                 0
vsel0#branch                                 0


No. of Data Rows : 7020

  Measurements for Transient Analysis

tvco_outside_while  =  1.354233e-09 targ=  6.462338e-08 trig=  6.326915e-08
fvco_outside_while  =  7.38425e+08
supply_current_rms_outside_while=   1.34545e-04 from=  1.00000e-08 to=  4.00000e-08
ground_current_rms_outside_while=   1.30399e-04 from=  1.00000e-08 to=  4.00000e-08
vctrl_avg_outside_while=  6.000000e-01 from=  1.000000e-08 to=  2.000500e-08
vhigh_outside_while =  1.927146e+00 at=  1.416500e-08
vlow_outside_while  =  -8.362875e-02 at=  1.682500e-08
peak_to_peak_outside_while=  2.01077e+00
supply_current_rms  =   1.49412e-04 from=  0.00000e+00 to=  7.00000e-08

binary raw file "3-stage_cs-vco_tb_WITH_APPENDWRITE.raw"
Reset re-loads circuit ** sch_path: /home/darunix/gitsandboxes/vco/vco/xschem/3-stage_cs-vco_tb.sch

Circuit: ** sch_path: /home/darunix/gitsandboxes/vco/vco/xschem/3-stage_cs-vco_tb.sch

option SCALE: Scale is set to 1e-06 for instance and model parameters
Doing analysis at TEMP = 27.000000 and TNOM = 27.000000

Warning: v1: no DC value, transient time 0 value used

Initial Transient Solution
--------------------------

Node                                   Voltage
----                                   -------
x1.net7                                    1.8
x1.net6                            1.16209e-06
net1                                       1.8
net2                                         0
out                                6.80528e-09
x1.vgp                                 1.66618
vctrl                                        0
x1.net8                               0.938142
x1.ng3                             9.63187e-09
x1.ng0                             3.93259e-09
x1.vco_switch_n_v2_0/selb          2.69671e-09
sel0                                       1.8
x1.ng1                             3.93259e-09
x1.vco_switch_n_v2_1/selb          2.69671e-09
sel1                                       1.8
x1.ng2                             9.63187e-09
x1.vco_switch_n_v2_2/selb                  1.8
sel2                                         0
x1.vco_switch_n_v2_3/selb                  1.8
sel3                                         0
x1.net3                               0.938142
x1.net5                                    1.8
x1.net2                                1.79219
x1.net4                               0.130516
x1.pg3                                     1.8
x1.pg0                                 1.66618
x1.vco_switch_p_0/selb             2.69671e-09
x1.pg1                                 1.66618
x1.pg2                                     1.8
x1.vco_switch_p_2/selb                     1.8
x1.vco_switch_p_1/selb             2.69671e-09
x1.vco_switch_p_3/selb                     1.8
vdd                                        1.8
buf1_out                           2.60627e-09
net4                                4.9501e-09
net5                                4.9501e-09
net3                                4.9501e-09
buf16_out                           4.9501e-09
v1#branch                          1.60237e-11
vmeas_current_gnd#branch           1.37538e-05
vmeas_current_vdd#branch           1.37538e-05
v2#branch                         -1.37539e-05
vsel3#branch                                 0
vsel2#branch                                 0
vsel1#branch                                 0
vsel0#branch                                 0


No. of Data Rows : 7020

  Measurements for Transient Analysis

tvco_outside_while  =  5.872459e-10 targ=  3.050018e-08 trig=  2.991294e-08
fvco_outside_while  =  1.70286e+09
supply_current_rms_outside_while=   2.12892e-04 from=  1.00000e-08 to=  4.00000e-08
ground_current_rms_outside_while=   2.46807e-04 from=  1.00000e-08 to=  4.00000e-08
vctrl_avg_outside_while=  7.000000e-01 from=  1.000000e-08 to=  2.000500e-08
vhigh_outside_while =  1.928147e+00 at=  1.265500e-08
vlow_outside_while  =  -8.405245e-02 at=  1.579500e-08
peak_to_peak_outside_while=  2.01220e+00
supply_current_rms  =   2.12727e-04 from=  0.00000e+00 to=  7.00000e-08

binary raw file "3-stage_cs-vco_tb_WITH_APPENDWRITE.raw"
Reset re-loads circuit ** sch_path: /home/darunix/gitsandboxes/vco/vco/xschem/3-stage_cs-vco_tb.sch

Circuit: ** sch_path: /home/darunix/gitsandboxes/vco/vco/xschem/3-stage_cs-vco_tb.sch

option SCALE: Scale is set to 1e-06 for instance and model parameters
Doing analysis at TEMP = 27.000000 and TNOM = 27.000000

Warning: v1: no DC value, transient time 0 value used

Initial Transient Solution
--------------------------

Node                                   Voltage
----                                   -------
x1.net7                                    1.8
x1.net6                            1.16209e-06
net1                                       1.8
net2                                         0
out                                6.80528e-09
x1.vgp                                 1.66618
vctrl                                        0
x1.net8                               0.938142
x1.ng3                             9.63187e-09
x1.ng0                             3.93259e-09
x1.vco_switch_n_v2_0/selb          2.69671e-09
sel0                                       1.8
x1.ng1                             3.93259e-09
x1.vco_switch_n_v2_1/selb          2.69671e-09
sel1                                       1.8
x1.ng2                             9.63187e-09
x1.vco_switch_n_v2_2/selb                  1.8
sel2                                         0
x1.vco_switch_n_v2_3/selb                  1.8
sel3                                         0
x1.net3                               0.938142
x1.net5                                    1.8
x1.net2                                1.79219
x1.net4                               0.130516
x1.pg3                                     1.8
x1.pg0                                 1.66618
x1.vco_switch_p_0/selb             2.69671e-09
x1.pg1                                 1.66618
x1.pg2                                     1.8
x1.vco_switch_p_2/selb                     1.8
x1.vco_switch_p_1/selb             2.69671e-09
x1.vco_switch_p_3/selb                     1.8
vdd                                        1.8
buf1_out                           2.60627e-09
net4                                4.9501e-09
net5                                4.9501e-09
net3                                4.9501e-09
buf16_out                           4.9501e-09
v1#branch                          1.60237e-11
vmeas_current_gnd#branch           1.37538e-05
vmeas_current_vdd#branch           1.37538e-05
v2#branch                         -1.37539e-05
vsel3#branch                                 0
vsel2#branch                                 0
vsel1#branch                                 0
vsel0#branch                                 0


No. of Data Rows : 7020

  Measurements for Transient Analysis

tvco_outside_while  =  3.258389e-10 targ=  1.837478e-08 trig=  1.804894e-08
fvco_outside_while  =  3.06900e+09
supply_current_rms_outside_while=   3.57584e-04 from=  1.00000e-08 to=  4.00000e-08
ground_current_rms_outside_while=   3.57552e-04 from=  1.00000e-08 to=  4.00000e-08
vctrl_avg_outside_while=  8.000000e-01 from=  1.000000e-08 to=  2.000500e-08
vhigh_outside_while =  1.928475e+00 at=  1.233500e-08
vlow_outside_while  =  -8.214268e-02 at=  1.281500e-08
peak_to_peak_outside_while=  2.01062e+00
supply_current_rms  =   3.51720e-04 from=  0.00000e+00 to=  7.00000e-08

binary raw file "3-stage_cs-vco_tb_WITH_APPENDWRITE.raw"
Reset re-loads circuit ** sch_path: /home/darunix/gitsandboxes/vco/vco/xschem/3-stage_cs-vco_tb.sch

Circuit: ** sch_path: /home/darunix/gitsandboxes/vco/vco/xschem/3-stage_cs-vco_tb.sch

option SCALE: Scale is set to 1e-06 for instance and model parameters
Doing analysis at TEMP = 27.000000 and TNOM = 27.000000

Warning: v1: no DC value, transient time 0 value used

Initial Transient Solution
--------------------------

Node                                   Voltage
----                                   -------
x1.net7                                    1.8
x1.net6                            1.16209e-06
net1                                       1.8
net2                                         0
out                                6.80528e-09
x1.vgp                                 1.66618
vctrl                                        0
x1.net8                               0.938142
x1.ng3                             9.63187e-09
x1.ng0                             3.93259e-09
x1.vco_switch_n_v2_0/selb          2.69671e-09
sel0                                       1.8
x1.ng1                             3.93259e-09
x1.vco_switch_n_v2_1/selb          2.69671e-09
sel1                                       1.8
x1.ng2                             9.63187e-09
x1.vco_switch_n_v2_2/selb                  1.8
sel2                                         0
x1.vco_switch_n_v2_3/selb                  1.8
sel3                                         0
x1.net3                               0.938142
x1.net5                                    1.8
x1.net2                                1.79219
x1.net4                               0.130516
x1.pg3                                     1.8
x1.pg0                                 1.66618
x1.vco_switch_p_0/selb             2.69671e-09
x1.pg1                                 1.66618
x1.pg2                                     1.8
x1.vco_switch_p_2/selb                     1.8
x1.vco_switch_p_1/selb             2.69671e-09
x1.vco_switch_p_3/selb                     1.8
vdd                                        1.8
buf1_out                           2.60627e-09
net4                                4.9501e-09
net5                                4.9501e-09
net3                                4.9501e-09
buf16_out                           4.9501e-09
v1#branch                          1.60237e-11
vmeas_current_gnd#branch           1.37538e-05
vmeas_current_vdd#branch           1.37538e-05
v2#branch                         -1.37539e-05
vsel3#branch                                 0
vsel2#branch                                 0
vsel1#branch                                 0
vsel0#branch                                 0


No. of Data Rows : 7020

  Measurements for Transient Analysis

tvco_outside_while  =  2.887761e-10 targ=  1.643940e-08 trig=  1.615062e-08
fvco_outside_while  =  3.46289e+09
supply_current_rms_outside_while=   4.19105e-04 from=  1.00000e-08 to=  4.00000e-08
ground_current_rms_outside_while=   4.18214e-04 from=  1.00000e-08 to=  4.00000e-08
vctrl_avg_outside_while=  9.000000e-01 from=  1.000000e-08 to=  2.000500e-08
vhigh_outside_while =  1.926775e+00 at=  1.597500e-08
vlow_outside_while  =  -8.192387e-02 at=  1.410500e-08
peak_to_peak_outside_while=  2.00870e+00
supply_current_rms  =   4.12694e-04 from=  0.00000e+00 to=  7.00000e-08

binary raw file "3-stage_cs-vco_tb_WITH_APPENDWRITE.raw"
Reset re-loads circuit ** sch_path: /home/darunix/gitsandboxes/vco/vco/xschem/3-stage_cs-vco_tb.sch

Circuit: ** sch_path: /home/darunix/gitsandboxes/vco/vco/xschem/3-stage_cs-vco_tb.sch

option SCALE: Scale is set to 1e-06 for instance and model parameters
Doing analysis at TEMP = 27.000000 and TNOM = 27.000000

Warning: v1: no DC value, transient time 0 value used

Initial Transient Solution
--------------------------

Node                                   Voltage
----                                   -------
x1.net7                                    1.8
x1.net6                            1.16209e-06
net1                                       1.8
net2                                         0
out                                6.80528e-09
x1.vgp                                 1.66618
vctrl                                        0
x1.net8                               0.938142
x1.ng3                             9.63187e-09
x1.ng0                             3.93259e-09
x1.vco_switch_n_v2_0/selb          2.69671e-09
sel0                                       1.8
x1.ng1                             3.93259e-09
x1.vco_switch_n_v2_1/selb          2.69671e-09
sel1                                       1.8
x1.ng2                             9.63187e-09
x1.vco_switch_n_v2_2/selb                  1.8
sel2                                         0
x1.vco_switch_n_v2_3/selb                  1.8
sel3                                         0
x1.net3                               0.938142
x1.net5                                    1.8
x1.net2                                1.79219
x1.net4                               0.130516
x1.pg3                                     1.8
x1.pg0                                 1.66618
x1.vco_switch_p_0/selb             2.69671e-09
x1.pg1                                 1.66618
x1.pg2                                     1.8
x1.vco_switch_p_2/selb                     1.8
x1.vco_switch_p_1/selb             2.69671e-09
x1.vco_switch_p_3/selb                     1.8
vdd                                        1.8
buf1_out                           2.60627e-09
net4                                4.9501e-09
net5                                4.9501e-09
net3                                4.9501e-09
buf16_out                           4.9501e-09
v1#branch                          1.60237e-11
vmeas_current_gnd#branch           1.37538e-05
vmeas_current_vdd#branch           1.37538e-05
v2#branch                         -1.37539e-05
vsel3#branch                                 0
vsel2#branch                                 0
vsel1#branch                                 0
vsel0#branch                                 0


No. of Data Rows : 7020

  Measurements for Transient Analysis

tvco_outside_while  =  2.740220e-10 targ=  1.569002e-08 trig=  1.541600e-08
fvco_outside_while  =  3.64934e+09
supply_current_rms_outside_while=   4.63495e-04 from=  1.00000e-08 to=  4.00000e-08
ground_current_rms_outside_while=   4.59850e-04 from=  1.00000e-08 to=  4.00000e-08
vctrl_avg_outside_while=  1.000000e+00 from=  1.000000e-08 to=  2.000500e-08
vhigh_outside_while =  1.925458e+00 at=  1.332500e-08
vlow_outside_while  =  -8.096259e-02 at=  1.374500e-08
peak_to_peak_outside_while=  2.00642e+00
supply_current_rms  =   4.56515e-04 from=  0.00000e+00 to=  7.00000e-08

binary raw file "3-stage_cs-vco_tb_WITH_APPENDWRITE.raw"
Reset re-loads circuit ** sch_path: /home/darunix/gitsandboxes/vco/vco/xschem/3-stage_cs-vco_tb.sch

Circuit: ** sch_path: /home/darunix/gitsandboxes/vco/vco/xschem/3-stage_cs-vco_tb.sch

option SCALE: Scale is set to 1e-06 for instance and model parameters
Doing analysis at TEMP = 27.000000 and TNOM = 27.000000

Warning: v1: no DC value, transient time 0 value used

Initial Transient Solution
--------------------------

Node                                   Voltage
----                                   -------
x1.net7                                    1.8
x1.net6                            1.16209e-06
net1                                       1.8
net2                                         0
out                                6.80528e-09
x1.vgp                                 1.66618
vctrl                                        0
x1.net8                               0.938142
x1.ng3                             9.63187e-09
x1.ng0                             3.93259e-09
x1.vco_switch_n_v2_0/selb          2.69671e-09
sel0                                       1.8
x1.ng1                             3.93259e-09
x1.vco_switch_n_v2_1/selb          2.69671e-09
sel1                                       1.8
x1.ng2                             9.63187e-09
x1.vco_switch_n_v2_2/selb                  1.8
sel2                                         0
x1.vco_switch_n_v2_3/selb                  1.8
sel3                                         0
x1.net3                               0.938142
x1.net5                                    1.8
x1.net2                                1.79219
x1.net4                               0.130516
x1.pg3                                     1.8
x1.pg0                                 1.66618
x1.vco_switch_p_0/selb             2.69671e-09
x1.pg1                                 1.66618
x1.pg2                                     1.8
x1.vco_switch_p_2/selb                     1.8
x1.vco_switch_p_1/selb             2.69671e-09
x1.vco_switch_p_3/selb                     1.8
vdd                                        1.8
buf1_out                           2.60627e-09
net4                                4.9501e-09
net5                                4.9501e-09
net3                                4.9501e-09
buf16_out                           4.9501e-09
v1#branch                          1.60237e-11
vmeas_current_gnd#branch           1.37538e-05
vmeas_current_vdd#branch           1.37538e-05
v2#branch                         -1.37539e-05
vsel3#branch                                 0
vsel2#branch                                 0
vsel1#branch                                 0
vsel0#branch                                 0


No. of Data Rows : 7020

  Measurements for Transient Analysis

tvco_outside_while  =  2.663303e-10 targ=  1.530226e-08 trig=  1.503593e-08
fvco_outside_while  =  3.75474e+09
supply_current_rms_outside_while=   4.98062e-04 from=  1.00000e-08 to=  4.00000e-08
ground_current_rms_outside_while=   4.95929e-04 from=  1.00000e-08 to=  4.00000e-08
vctrl_avg_outside_while=  1.100000e+00 from=  1.000000e-08 to=  2.000500e-08
vhigh_outside_while =  1.924214e+00 at=  1.033500e-08
vlow_outside_while  =  -8.050078e-02 at=  1.074500e-08
peak_to_peak_outside_while=  2.00471e+00
supply_current_rms  =   4.90365e-04 from=  0.00000e+00 to=  7.00000e-08

binary raw file "3-stage_cs-vco_tb_WITH_APPENDWRITE.raw"
Reset re-loads circuit ** sch_path: /home/darunix/gitsandboxes/vco/vco/xschem/3-stage_cs-vco_tb.sch

Circuit: ** sch_path: /home/darunix/gitsandboxes/vco/vco/xschem/3-stage_cs-vco_tb.sch

option SCALE: Scale is set to 1e-06 for instance and model parameters
Doing analysis at TEMP = 27.000000 and TNOM = 27.000000

Warning: v1: no DC value, transient time 0 value used

Initial Transient Solution
--------------------------

Node                                   Voltage
----                                   -------
x1.net7                                    1.8
x1.net6                            1.16209e-06
net1                                       1.8
net2                                         0
out                                6.80528e-09
x1.vgp                                 1.66618
vctrl                                        0
x1.net8                               0.938142
x1.ng3                             9.63187e-09
x1.ng0                             3.93259e-09
x1.vco_switch_n_v2_0/selb          2.69671e-09
sel0                                       1.8
x1.ng1                             3.93259e-09
x1.vco_switch_n_v2_1/selb          2.69671e-09
sel1                                       1.8
x1.ng2                             9.63187e-09
x1.vco_switch_n_v2_2/selb                  1.8
sel2                                         0
x1.vco_switch_n_v2_3/selb                  1.8
sel3                                         0
x1.net3                               0.938142
x1.net5                                    1.8
x1.net2                                1.79219
x1.net4                               0.130516
x1.pg3                                     1.8
x1.pg0                                 1.66618
x1.vco_switch_p_0/selb             2.69671e-09
x1.pg1                                 1.66618
x1.pg2                                     1.8
x1.vco_switch_p_2/selb                     1.8
x1.vco_switch_p_1/selb             2.69671e-09
x1.vco_switch_p_3/selb                     1.8
vdd                                        1.8
buf1_out                           2.60627e-09
net4                                4.9501e-09
net5                                4.9501e-09
net3                                4.9501e-09
buf16_out                           4.9501e-09
v1#branch                          1.60237e-11
vmeas_current_gnd#branch           1.37538e-05
vmeas_current_vdd#branch           1.37538e-05
v2#branch                         -1.37539e-05
vsel3#branch                                 0
vsel2#branch                                 0
vsel1#branch                                 0
vsel0#branch                                 0


No. of Data Rows : 7020

  Measurements for Transient Analysis

tvco_outside_while  =  2.623422e-10 targ=  1.509825e-08 trig=  1.483591e-08
fvco_outside_while  =  3.81181e+09
supply_current_rms_outside_while=   5.27745e-04 from=  1.00000e-08 to=  4.00000e-08
ground_current_rms_outside_while=   5.18583e-04 from=  1.00000e-08 to=  4.00000e-08
vctrl_avg_outside_while=  1.200000e+00 from=  1.000000e-08 to=  2.000500e-08
vhigh_outside_while =  1.923504e+00 at=  1.125500e-08
vlow_outside_while  =  -8.020317e-02 at=  1.822500e-08
peak_to_peak_outside_while=  2.00371e+00
supply_current_rms  =   5.20081e-04 from=  0.00000e+00 to=  7.00000e-08

binary raw file "3-stage_cs-vco_tb_WITH_APPENDWRITE.raw"
Reset re-loads circuit ** sch_path: /home/darunix/gitsandboxes/vco/vco/xschem/3-stage_cs-vco_tb.sch

Circuit: ** sch_path: /home/darunix/gitsandboxes/vco/vco/xschem/3-stage_cs-vco_tb.sch

option SCALE: Scale is set to 1e-06 for instance and model parameters
Doing analysis at TEMP = 27.000000 and TNOM = 27.000000

Warning: v1: no DC value, transient time 0 value used

Initial Transient Solution
--------------------------

Node                                   Voltage
----                                   -------
x1.net7                                    1.8
x1.net6                            1.16209e-06
net1                                       1.8
net2                                         0
out                                6.80528e-09
x1.vgp                                 1.66618
vctrl                                        0
x1.net8                               0.938142
x1.ng3                             9.63187e-09
x1.ng0                             3.93259e-09
x1.vco_switch_n_v2_0/selb          2.69671e-09
sel0                                       1.8
x1.ng1                             3.93259e-09
x1.vco_switch_n_v2_1/selb          2.69671e-09
sel1                                       1.8
x1.ng2                             9.63187e-09
x1.vco_switch_n_v2_2/selb                  1.8
sel2                                         0
x1.vco_switch_n_v2_3/selb                  1.8
sel3                                         0
x1.net3                               0.938142
x1.net5                                    1.8
x1.net2                                1.79219
x1.net4                               0.130516
x1.pg3                                     1.8
x1.pg0                                 1.66618
x1.vco_switch_p_0/selb             2.69671e-09
x1.pg1                                 1.66618
x1.pg2                                     1.8
x1.vco_switch_p_2/selb                     1.8
x1.vco_switch_p_1/selb             2.69671e-09
x1.vco_switch_p_3/selb                     1.8
vdd                                        1.8
buf1_out                           2.60627e-09
net4                                4.9501e-09
net5                                4.9501e-09
net3                                4.9501e-09
buf16_out                           4.9501e-09
v1#branch                          1.60237e-11
vmeas_current_gnd#branch           1.37538e-05
vmeas_current_vdd#branch           1.37538e-05
v2#branch                         -1.37539e-05
vsel3#branch                                 0
vsel2#branch                                 0
vsel1#branch                                 0
vsel0#branch                                 0


No. of Data Rows : 7020

  Measurements for Transient Analysis

tvco_outside_while  =  2.604047e-10 targ=  1.498579e-08 trig=  1.472538e-08
fvco_outside_while  =  3.84018e+09
supply_current_rms_outside_while=   6.44351e-04 from=  1.00000e-08 to=  4.00000e-08
ground_current_rms_outside_while=   5.33605e-04 from=  1.00000e-08 to=  4.00000e-08
vctrl_avg_outside_while=  1.300000e+00 from=  1.000000e-08 to=  2.000500e-08
vhigh_outside_while =  1.923081e+00 at=  1.768500e-08
vlow_outside_while  =  -7.995231e-02 at=  1.157500e-08
peak_to_peak_outside_while=  2.00303e+00
supply_current_rms  =   6.43509e-04 from=  0.00000e+00 to=  7.00000e-08

binary raw file "3-stage_cs-vco_tb_WITH_APPENDWRITE.raw"
Reset re-loads circuit ** sch_path: /home/darunix/gitsandboxes/vco/vco/xschem/3-stage_cs-vco_tb.sch

Circuit: ** sch_path: /home/darunix/gitsandboxes/vco/vco/xschem/3-stage_cs-vco_tb.sch

option SCALE: Scale is set to 1e-06 for instance and model parameters
Doing analysis at TEMP = 27.000000 and TNOM = 27.000000

Warning: v1: no DC value, transient time 0 value used

Initial Transient Solution
--------------------------

Node                                   Voltage
----                                   -------
x1.net7                                    1.8
x1.net6                            1.16209e-06
net1                                       1.8
net2                                         0
out                                6.80528e-09
x1.vgp                                 1.66618
vctrl                                        0
x1.net8                               0.938142
x1.ng3                             9.63187e-09
x1.ng0                             3.93259e-09
x1.vco_switch_n_v2_0/selb          2.69671e-09
sel0                                       1.8
x1.ng1                             3.93259e-09
x1.vco_switch_n_v2_1/selb          2.69671e-09
sel1                                       1.8
x1.ng2                             9.63187e-09
x1.vco_switch_n_v2_2/selb                  1.8
sel2                                         0
x1.vco_switch_n_v2_3/selb                  1.8
sel3                                         0
x1.net3                               0.938142
x1.net5                                    1.8
x1.net2                                1.79219
x1.net4                               0.130516
x1.pg3                                     1.8
x1.pg0                                 1.66618
x1.vco_switch_p_0/selb             2.69671e-09
x1.pg1                                 1.66618
x1.pg2                                     1.8
x1.vco_switch_p_2/selb                     1.8
x1.vco_switch_p_1/selb             2.69671e-09
x1.vco_switch_p_3/selb                     1.8
vdd                                        1.8
buf1_out                           2.60627e-09
net4                                4.9501e-09
net5                                4.9501e-09
net3                                4.9501e-09
buf16_out                           4.9501e-09
v1#branch                          1.60237e-11
vmeas_current_gnd#branch           1.37538e-05
vmeas_current_vdd#branch           1.37538e-05
v2#branch                         -1.37539e-05
vsel3#branch                                 0
vsel2#branch                                 0
vsel1#branch                                 0
vsel0#branch                                 0


No. of Data Rows : 7020

  Measurements for Transient Analysis

tvco_outside_while  =  2.589721e-10 targ=  1.491261e-08 trig=  1.465364e-08
fvco_outside_while  =  3.86142e+09
supply_current_rms_outside_while=   5.71231e-04 from=  1.00000e-08 to=  4.00000e-08
ground_current_rms_outside_while=   5.40812e-04 from=  1.00000e-08 to=  4.00000e-08
vctrl_avg_outside_while=  1.400000e+00 from=  1.000000e-08 to=  2.000500e-08
vhigh_outside_while =  1.922975e+00 at=  1.552500e-08
vlow_outside_while  =  -7.965946e-02 at=  1.566500e-08
peak_to_peak_outside_while=  2.00263e+00
supply_current_rms  =   5.59497e-04 from=  0.00000e+00 to=  7.00000e-08

binary raw file "3-stage_cs-vco_tb_WITH_APPENDWRITE.raw"
Reset re-loads circuit ** sch_path: /home/darunix/gitsandboxes/vco/vco/xschem/3-stage_cs-vco_tb.sch

Circuit: ** sch_path: /home/darunix/gitsandboxes/vco/vco/xschem/3-stage_cs-vco_tb.sch

option SCALE: Scale is set to 1e-06 for instance and model parameters
Doing analysis at TEMP = 27.000000 and TNOM = 27.000000

Warning: v1: no DC value, transient time 0 value used

Initial Transient Solution
--------------------------

Node                                   Voltage
----                                   -------
x1.net7                                    1.8
x1.net6                            1.16209e-06
net1                                       1.8
net2                                         0
out                                6.80528e-09
x1.vgp                                 1.66618
vctrl                                        0
x1.net8                               0.938142
x1.ng3                             9.63187e-09
x1.ng0                             3.93259e-09
x1.vco_switch_n_v2_0/selb          2.69671e-09
sel0                                       1.8
x1.ng1                             3.93259e-09
x1.vco_switch_n_v2_1/selb          2.69671e-09
sel1                                       1.8
x1.ng2                             9.63187e-09
x1.vco_switch_n_v2_2/selb                  1.8
sel2                                         0
x1.vco_switch_n_v2_3/selb                  1.8
sel3                                         0
x1.net3                               0.938142
x1.net5                                    1.8
x1.net2                                1.79219
x1.net4                               0.130516
x1.pg3                                     1.8
x1.pg0                                 1.66618
x1.vco_switch_p_0/selb             2.69671e-09
x1.pg1                                 1.66618
x1.pg2                                     1.8
x1.vco_switch_p_2/selb                     1.8
x1.vco_switch_p_1/selb             2.69671e-09
x1.vco_switch_p_3/selb                     1.8
vdd                                        1.8
buf1_out                           2.60627e-09
net4                                4.9501e-09
net5                                4.9501e-09
net3                                4.9501e-09
buf16_out                           4.9501e-09
v1#branch                          1.60237e-11
vmeas_current_gnd#branch           1.37538e-05
vmeas_current_vdd#branch           1.37538e-05
v2#branch                         -1.37539e-05
vsel3#branch                                 0
vsel2#branch                                 0
vsel1#branch                                 0
vsel0#branch                                 0


No. of Data Rows : 7020

  Measurements for Transient Analysis

tvco_outside_while  =  2.580028e-10 targ=  1.486042e-08 trig=  1.460241e-08
fvco_outside_while  =  3.87593e+09
supply_current_rms_outside_while=   5.49885e-04 from=  1.00000e-08 to=  4.00000e-08
ground_current_rms_outside_while=   5.45752e-04 from=  1.00000e-08 to=  4.00000e-08
vctrl_avg_outside_while=  1.500000e+00 from=  1.000000e-08 to=  2.000500e-08
vhigh_outside_while =  1.922986e+00 at=  1.082500e-08
vlow_outside_while  =  -7.943543e-02 at=  1.767500e-08
peak_to_peak_outside_while=  2.00242e+00
supply_current_rms  =   5.42205e-04 from=  0.00000e+00 to=  7.00000e-08

binary raw file "3-stage_cs-vco_tb_WITH_APPENDWRITE.raw"
Reset re-loads circuit ** sch_path: /home/darunix/gitsandboxes/vco/vco/xschem/3-stage_cs-vco_tb.sch

Circuit: ** sch_path: /home/darunix/gitsandboxes/vco/vco/xschem/3-stage_cs-vco_tb.sch

option SCALE: Scale is set to 1e-06 for instance and model parameters
Doing analysis at TEMP = 27.000000 and TNOM = 27.000000

Warning: v1: no DC value, transient time 0 value used

Initial Transient Solution
--------------------------

Node                                   Voltage
----                                   -------
x1.net7                                    1.8
x1.net6                            1.16209e-06
net1                                       1.8
net2                                         0
out                                6.80528e-09
x1.vgp                                 1.66618
vctrl                                        0
x1.net8                               0.938142
x1.ng3                             9.63187e-09
x1.ng0                             3.93259e-09
x1.vco_switch_n_v2_0/selb          2.69671e-09
sel0                                       1.8
x1.ng1                             3.93259e-09
x1.vco_switch_n_v2_1/selb          2.69671e-09
sel1                                       1.8
x1.ng2                             9.63187e-09
x1.vco_switch_n_v2_2/selb                  1.8
sel2                                         0
x1.vco_switch_n_v2_3/selb                  1.8
sel3                                         0
x1.net3                               0.938142
x1.net5                                    1.8
x1.net2                                1.79219
x1.net4                               0.130516
x1.pg3                                     1.8
x1.pg0                                 1.66618
x1.vco_switch_p_0/selb             2.69671e-09
x1.pg1                                 1.66618
x1.pg2                                     1.8
x1.vco_switch_p_2/selb                     1.8
x1.vco_switch_p_1/selb             2.69671e-09
x1.vco_switch_p_3/selb                     1.8
vdd                                        1.8
buf1_out                           2.60627e-09
net4                                4.9501e-09
net5                                4.9501e-09
net3                                4.9501e-09
buf16_out                           4.9501e-09
v1#branch                          1.60237e-11
vmeas_current_gnd#branch           1.37538e-05
vmeas_current_vdd#branch           1.37538e-05
v2#branch                         -1.37539e-05
vsel3#branch                                 0
vsel2#branch                                 0
vsel1#branch                                 0
vsel0#branch                                 0


No. of Data Rows : 7020

  Measurements for Transient Analysis

tvco_outside_while  =  2.571648e-10 targ=  1.482167e-08 trig=  1.456450e-08
fvco_outside_while  =  3.88856e+09
supply_current_rms_outside_while=   5.55624e-04 from=  1.00000e-08 to=  4.00000e-08
ground_current_rms_outside_while=   5.50017e-04 from=  1.00000e-08 to=  4.00000e-08
vctrl_avg_outside_while=  1.600000e+00 from=  1.000000e-08 to=  2.000500e-08
vhigh_outside_while =  1.922954e+00 at=  1.002500e-08
vlow_outside_while  =  -7.928569e-02 at=  1.994500e-08
peak_to_peak_outside_while=  2.00224e+00
supply_current_rms  =   5.47689e-04 from=  0.00000e+00 to=  7.00000e-08

binary raw file "3-stage_cs-vco_tb_WITH_APPENDWRITE.raw"
Reset re-loads circuit ** sch_path: /home/darunix/gitsandboxes/vco/vco/xschem/3-stage_cs-vco_tb.sch

Circuit: ** sch_path: /home/darunix/gitsandboxes/vco/vco/xschem/3-stage_cs-vco_tb.sch

option SCALE: Scale is set to 1e-06 for instance and model parameters
Doing analysis at TEMP = 27.000000 and TNOM = 27.000000

Warning: v1: no DC value, transient time 0 value used

Initial Transient Solution
--------------------------

Node                                   Voltage
----                                   -------
x1.net7                                    1.8
x1.net6                            1.16209e-06
net1                                       1.8
net2                                         0
out                                6.80528e-09
x1.vgp                                 1.66618
vctrl                                        0
x1.net8                               0.938142
x1.ng3                             9.63187e-09
x1.ng0                             3.93259e-09
x1.vco_switch_n_v2_0/selb          2.69671e-09
sel0                                       1.8
x1.ng1                             3.93259e-09
x1.vco_switch_n_v2_1/selb          2.69671e-09
sel1                                       1.8
x1.ng2                             9.63187e-09
x1.vco_switch_n_v2_2/selb                  1.8
sel2                                         0
x1.vco_switch_n_v2_3/selb                  1.8
sel3                                         0
x1.net3                               0.938142
x1.net5                                    1.8
x1.net2                                1.79219
x1.net4                               0.130516
x1.pg3                                     1.8
x1.pg0                                 1.66618
x1.vco_switch_p_0/selb             2.69671e-09
x1.pg1                                 1.66618
x1.pg2                                     1.8
x1.vco_switch_p_2/selb                     1.8
x1.vco_switch_p_1/selb             2.69671e-09
x1.vco_switch_p_3/selb                     1.8
vdd                                        1.8
buf1_out                           2.60627e-09
net4                                4.9501e-09
net5                                4.9501e-09
net3                                4.9501e-09
buf16_out                           4.9501e-09
v1#branch                          1.60237e-11
vmeas_current_gnd#branch           1.37538e-05
vmeas_current_vdd#branch           1.37538e-05
v2#branch                         -1.37539e-05
vsel3#branch                                 0
vsel2#branch                                 0
vsel1#branch                                 0
vsel0#branch                                 0


No. of Data Rows : 7020

  Measurements for Transient Analysis

tvco_outside_while  =  2.565745e-10 targ=  1.479164e-08 trig=  1.453507e-08
fvco_outside_while  =  3.89750e+09
supply_current_rms_outside_while=   5.55996e-04 from=  1.00000e-08 to=  4.00000e-08
ground_current_rms_outside_while=   5.53207e-04 from=  1.00000e-08 to=  4.00000e-08
vctrl_avg_outside_while=  1.700000e+00 from=  1.000000e-08 to=  2.000500e-08
vhigh_outside_while =  1.922928e+00 at=  1.000500e-08
vlow_outside_while  =  -7.916963e-02 at=  1.656500e-08
peak_to_peak_outside_while=  2.00210e+00
supply_current_rms  =   5.47567e-04 from=  0.00000e+00 to=  7.00000e-08

binary raw file "3-stage_cs-vco_tb_WITH_APPENDWRITE.raw"
Reset re-loads circuit ** sch_path: /home/darunix/gitsandboxes/vco/vco/xschem/3-stage_cs-vco_tb.sch

Circuit: ** sch_path: /home/darunix/gitsandboxes/vco/vco/xschem/3-stage_cs-vco_tb.sch

option SCALE: Scale is set to 1e-06 for instance and model parameters
Doing analysis at TEMP = 27.000000 and TNOM = 27.000000

Warning: v1: no DC value, transient time 0 value used

Initial Transient Solution
--------------------------

Node                                   Voltage
----                                   -------
x1.net7                                    1.8
x1.net6                            1.16209e-06
net1                                       1.8
net2                                         0
out                                6.80528e-09
x1.vgp                                 1.66618
vctrl                                        0
x1.net8                               0.938142
x1.ng3                             9.63187e-09
x1.ng0                             3.93259e-09
x1.vco_switch_n_v2_0/selb          2.69671e-09
sel0                                       1.8
x1.ng1                             3.93259e-09
x1.vco_switch_n_v2_1/selb          2.69671e-09
sel1                                       1.8
x1.ng2                             9.63187e-09
x1.vco_switch_n_v2_2/selb                  1.8
sel2                                         0
x1.vco_switch_n_v2_3/selb                  1.8
sel3                                         0
x1.net3                               0.938142
x1.net5                                    1.8
x1.net2                                1.79219
x1.net4                               0.130516
x1.pg3                                     1.8
x1.pg0                                 1.66618
x1.vco_switch_p_0/selb             2.69671e-09
x1.pg1                                 1.66618
x1.pg2                                     1.8
x1.vco_switch_p_2/selb                     1.8
x1.vco_switch_p_1/selb             2.69671e-09
x1.vco_switch_p_3/selb                     1.8
vdd                                        1.8
buf1_out                           2.60627e-09
net4                                4.9501e-09
net5                                4.9501e-09
net3                                4.9501e-09
buf16_out                           4.9501e-09
v1#branch                          1.60237e-11
vmeas_current_gnd#branch           1.37538e-05
vmeas_current_vdd#branch           1.37538e-05
v2#branch                         -1.37539e-05
vsel3#branch                                 0
vsel2#branch                                 0
vsel1#branch                                 0
vsel0#branch                                 0


No. of Data Rows : 7020

  Measurements for Transient Analysis

tvco_outside_while  =  2.564249e-10 targ=  1.476802e-08 trig=  1.451159e-08
fvco_outside_while  =  3.89978e+09
supply_current_rms_outside_while=   5.57853e-04 from=  1.00000e-08 to=  4.00000e-08
ground_current_rms_outside_while=   5.54611e-04 from=  1.00000e-08 to=  4.00000e-08
vctrl_avg_outside_while=  1.800000e+00 from=  1.000000e-08 to=  2.000500e-08
vhigh_outside_while =  1.922908e+00 at=  1.101500e-08
vlow_outside_while  =  -7.908245e-02 at=  1.679500e-08
peak_to_peak_outside_while=  2.00199e+00
supply_current_rms  =   5.49700e-04 from=  0.00000e+00 to=  7.00000e-08

binary raw file "3-stage_cs-vco_tb_WITH_APPENDWRITE.raw"
Doing analysis at TEMP = 27.000000 and TNOM = 27.000000

Warning: v1: no DC value, transient time 0 value used

  Measurements for Transient Analysis

tvco_outside_while  =  2.564249e-10 targ=  1.476802e-08 trig=  1.451159e-08
Original line no.: 0, new internal line no.: 12460:
insertnumber: fails.
  s = ".meas tran fvco_outside_while param=    3.899776719884184e+09   " u="  3.899776719884184e+09  " id=0
fvco_outside_while  =  3.89978e+09
supply_current_rms_outside_while=   5.57853e-04 from=  1.00000e-08 to=  4.00000e-08
ground_current_rms_outside_while=   5.54611e-04 from=  1.00000e-08 to=  4.00000e-08
vctrl_avg_outside_while=  1.800000e+00 from=  1.000000e-08 to=  2.000500e-08
vhigh_outside_while =  1.922908e+00 at=  1.101500e-08
vlow_outside_while  =  -7.908245e-02 at=  1.679500e-08
Original line no.: 0, new internal line no.: 12466:
insertnumber: fails.
  s = ".meas tran peak_to_peak_outside_while param=    2.001990376958142e+00   " u="  2.001990376958142e+00  " id=0
peak_to_peak_outside_while=  2.00199e+00
supply_current_rms  =   5.49700e-04 from=  0.00000e+00 to=  7.00000e-08


Total analysis time (seconds) = 10.518

Total CPU time (seconds) = 202.063 

Total DRAM available = 7952.234 MB.
DRAM currently available =  117.152 MB.
Maximum ngspice program size =  684.820 MB.
Current ngspice program size =  666.195 MB.

Shared ngspice pages =    9.090 MB.
Text (code) pages =    7.879 MB.
Stack = 0 bytes.
Library pages =  657.336 MB.

