
Compatibility modes selected: hs a

Warning: m=xx on .subckt line will override multiplier m hierarchy!


Circuit: ** sch_path: /home/darunix/gitsandboxes/vco/vco/xschem/3-stage_cs-vco_tb.sch

option SCALE: Scale is set to 1e-06 for instance and model parameters
Reset re-loads circuit ** sch_path: /home/darunix/gitsandboxes/vco/vco/xschem/3-stage_cs-vco_tb.sch

Circuit: ** sch_path: /home/darunix/gitsandboxes/vco/vco/xschem/3-stage_cs-vco_tb.sch

option SCALE: Scale is set to 1e-06 for instance and model parameters
Reset re-loads circuit ** sch_path: /home/darunix/gitsandboxes/vco/vco/xschem/3-stage_cs-vco_tb.sch

Circuit: ** sch_path: /home/darunix/gitsandboxes/vco/vco/xschem/3-stage_cs-vco_tb.sch

option SCALE: Scale is set to 1e-06 for instance and model parameters
Doing analysis at TEMP = 27.000000 and TNOM = 27.000000

Warning: v1: no DC value, transient time 0 value used

Initial Transient Solution
--------------------------

Node                                   Voltage
----                                   -------
x1.net7                                    1.8
x1.net6                            1.16209e-06
net1                                       1.8
net2                                         0
out                                6.80528e-09
x1.vgp                                  1.6571
vctrl                                        0
x1.net8                               0.966293
x1.ng3                             3.93259e-09
x1.ng0                             3.93259e-09
x1.vco_switch_n_v2_0/selb          2.69671e-09
sel0                                       1.8
x1.ng1                             3.93259e-09
x1.vco_switch_n_v2_1/selb          2.69671e-09
sel1                                       1.8
x1.ng2                             3.93259e-09
x1.vco_switch_n_v2_2/selb          2.69671e-09
sel2                                       1.8
x1.vco_switch_n_v2_3/selb          2.69671e-09
sel3                                       1.8
x1.net3                               0.966293
x1.net5                                    1.8
x1.net2                                1.79523
x1.net4                              0.0839479
x1.pg3                                  1.6571
x1.pg0                                  1.6571
x1.vco_switch_p_0/selb             2.69671e-09
x1.pg1                                  1.6571
x1.pg2                                  1.6571
x1.vco_switch_p_2/selb             2.69671e-09
x1.vco_switch_p_1/selb             2.69671e-09
x1.vco_switch_p_3/selb             2.69671e-09
vdd                                        1.8
buf1_out                           2.60627e-09
net4                                4.9501e-09
net5                                4.9501e-09
net3                                4.9501e-09
buf16_out                           4.9501e-09
v1#branch                          1.44058e-11
vmeas_current_gnd#branch            1.2222e-05
vmeas_current_vdd#branch            1.2222e-05
v2#branch                         -1.22221e-05
vsel3#branch                                 0
vsel2#branch                                 0
vsel1#branch                                 0
vsel0#branch                                 0


No. of Data Rows : 7020

  Measurements for Transient Analysis


Error: measure  tvco_outside_while  (TRIG) : out of interval
 .meas tran tvco_outside_while trig v(out) val=0.5*1.8 rise=50 targ v(out) val=0.5*1.8 rise=51 failed!

Original line no.: 0, new internal line no.: 12460:
Undefined number [tvco_outside_while]
Original line no.: 0, new internal line no.: 12460:
Cannot compute substitute
fvco_outside_while  =   failed
supply_current_rms_outside_while=   3.41112e-05 from=  1.00000e-08 to=  4.00000e-08
ground_current_rms_outside_while=   4.26658e-05 from=  1.00000e-08 to=  4.00000e-08
vctrl_avg_outside_while=  0.000000e+00 from=  1.000000e-08 to=  2.000500e-08
vhigh_outside_while =  1.926124e+00 at=  1.087500e-08
vlow_outside_while  =  -8.146002e-02 at=  1.072500e-08
peak_to_peak_outside_while=  2.00758e+00
supply_current_rms  =   5.54515e-05 from=  0.00000e+00 to=  7.00000e-08

binary raw file "3-stage_cs-vco_tb_WITH_APPENDWRITE.raw"
Reset re-loads circuit ** sch_path: /home/darunix/gitsandboxes/vco/vco/xschem/3-stage_cs-vco_tb.sch

Circuit: ** sch_path: /home/darunix/gitsandboxes/vco/vco/xschem/3-stage_cs-vco_tb.sch

option SCALE: Scale is set to 1e-06 for instance and model parameters
Doing analysis at TEMP = 27.000000 and TNOM = 27.000000

Warning: v1: no DC value, transient time 0 value used

Initial Transient Solution
--------------------------

Node                                   Voltage
----                                   -------
x1.net7                                    1.8
x1.net6                            1.16209e-06
net1                                       1.8
net2                                         0
out                                6.80528e-09
x1.vgp                                  1.6571
vctrl                                        0
x1.net8                               0.966293
x1.ng3                             3.93259e-09
x1.ng0                             3.93259e-09
x1.vco_switch_n_v2_0/selb          2.69671e-09
sel0                                       1.8
x1.ng1                             3.93259e-09
x1.vco_switch_n_v2_1/selb          2.69671e-09
sel1                                       1.8
x1.ng2                             3.93259e-09
x1.vco_switch_n_v2_2/selb          2.69671e-09
sel2                                       1.8
x1.vco_switch_n_v2_3/selb          2.69671e-09
sel3                                       1.8
x1.net3                               0.966293
x1.net5                                    1.8
x1.net2                                1.79523
x1.net4                              0.0839479
x1.pg3                                  1.6571
x1.pg0                                  1.6571
x1.vco_switch_p_0/selb             2.69671e-09
x1.pg1                                  1.6571
x1.pg2                                  1.6571
x1.vco_switch_p_2/selb             2.69671e-09
x1.vco_switch_p_1/selb             2.69671e-09
x1.vco_switch_p_3/selb             2.69671e-09
vdd                                        1.8
buf1_out                           2.60627e-09
net4                                4.9501e-09
net5                                4.9501e-09
net3                                4.9501e-09
buf16_out                           4.9501e-09
v1#branch                          1.44058e-11
vmeas_current_gnd#branch            1.2222e-05
vmeas_current_vdd#branch            1.2222e-05
v2#branch                         -1.22221e-05
vsel3#branch                                 0
vsel2#branch                                 0
vsel1#branch                                 0
vsel0#branch                                 0


No. of Data Rows : 7020

  Measurements for Transient Analysis


Error: measure  tvco_outside_while  (TRIG) : out of interval
 .meas tran tvco_outside_while trig v(out) val=0.5*1.8 rise=50 targ v(out) val=0.5*1.8 rise=51 failed!

Original line no.: 0, new internal line no.: 12460:
Undefined number [tvco_outside_while]
Original line no.: 0, new internal line no.: 12460:
Cannot compute substitute
fvco_outside_while  =   failed
supply_current_rms_outside_while=   4.91331e-05 from=  1.00000e-08 to=  4.00000e-08
ground_current_rms_outside_while=   1.58677e-05 from=  1.00000e-08 to=  4.00000e-08
vctrl_avg_outside_while=  1.000000e-01 from=  1.000000e-08 to=  2.000500e-08
vhigh_outside_while =  3.405164e-06 at=  1.000500e-08
vlow_outside_while  =  -3.364600e-06 at=  1.001500e-08
peak_to_peak_outside_while=  6.76976e-06
supply_current_rms  =   6.73300e-05 from=  0.00000e+00 to=  7.00000e-08

binary raw file "3-stage_cs-vco_tb_WITH_APPENDWRITE.raw"
Reset re-loads circuit ** sch_path: /home/darunix/gitsandboxes/vco/vco/xschem/3-stage_cs-vco_tb.sch

Circuit: ** sch_path: /home/darunix/gitsandboxes/vco/vco/xschem/3-stage_cs-vco_tb.sch

option SCALE: Scale is set to 1e-06 for instance and model parameters
Doing analysis at TEMP = 27.000000 and TNOM = 27.000000

Warning: v1: no DC value, transient time 0 value used

Initial Transient Solution
--------------------------

Node                                   Voltage
----                                   -------
x1.net7                                    1.8
x1.net6                            1.16209e-06
net1                                       1.8
net2                                         0
out                                6.80528e-09
x1.vgp                                  1.6571
vctrl                                        0
x1.net8                               0.966293
x1.ng3                             3.93259e-09
x1.ng0                             3.93259e-09
x1.vco_switch_n_v2_0/selb          2.69671e-09
sel0                                       1.8
x1.ng1                             3.93259e-09
x1.vco_switch_n_v2_1/selb          2.69671e-09
sel1                                       1.8
x1.ng2                             3.93259e-09
x1.vco_switch_n_v2_2/selb          2.69671e-09
sel2                                       1.8
x1.vco_switch_n_v2_3/selb          2.69671e-09
sel3                                       1.8
x1.net3                               0.966293
x1.net5                                    1.8
x1.net2                                1.79523
x1.net4                              0.0839479
x1.pg3                                  1.6571
x1.pg0                                  1.6571
x1.vco_switch_p_0/selb             2.69671e-09
x1.pg1                                  1.6571
x1.pg2                                  1.6571
x1.vco_switch_p_2/selb             2.69671e-09
x1.vco_switch_p_1/selb             2.69671e-09
x1.vco_switch_p_3/selb             2.69671e-09
vdd                                        1.8
buf1_out                           2.60627e-09
net4                                4.9501e-09
net5                                4.9501e-09
net3                                4.9501e-09
buf16_out                           4.9501e-09
v1#branch                          1.44058e-11
vmeas_current_gnd#branch            1.2222e-05
vmeas_current_vdd#branch            1.2222e-05
v2#branch                         -1.22221e-05
vsel3#branch                                 0
vsel2#branch                                 0
vsel1#branch                                 0
vsel0#branch                                 0


No. of Data Rows : 7020

  Measurements for Transient Analysis


Error: measure  tvco_outside_while  (TRIG) : out of interval
 .meas tran tvco_outside_while trig v(out) val=0.5*1.8 rise=50 targ v(out) val=0.5*1.8 rise=51 failed!

Original line no.: 0, new internal line no.: 12460:
Undefined number [tvco_outside_while]
Original line no.: 0, new internal line no.: 12460:
Cannot compute substitute
fvco_outside_while  =   failed
supply_current_rms_outside_while=   1.50853e-05 from=  1.00000e-08 to=  4.00000e-08
ground_current_rms_outside_while=   4.61998e-05 from=  1.00000e-08 to=  4.00000e-08
vctrl_avg_outside_while=  2.000000e-01 from=  1.000000e-08 to=  2.000500e-08
vhigh_outside_while =  1.365017e-05 at=  1.000500e-08
vlow_outside_while  =  -1.361321e-05 at=  1.001500e-08
peak_to_peak_outside_while=  2.72634e-05
supply_current_rms  =   5.18212e-05 from=  0.00000e+00 to=  7.00000e-08

binary raw file "3-stage_cs-vco_tb_WITH_APPENDWRITE.raw"
Reset re-loads circuit ** sch_path: /home/darunix/gitsandboxes/vco/vco/xschem/3-stage_cs-vco_tb.sch

Circuit: ** sch_path: /home/darunix/gitsandboxes/vco/vco/xschem/3-stage_cs-vco_tb.sch

option SCALE: Scale is set to 1e-06 for instance and model parameters
Doing analysis at TEMP = 27.000000 and TNOM = 27.000000

Warning: v1: no DC value, transient time 0 value used

Initial Transient Solution
--------------------------

Node                                   Voltage
----                                   -------
x1.net7                                    1.8
x1.net6                            1.16209e-06
net1                                       1.8
net2                                         0
out                                6.80528e-09
x1.vgp                                  1.6571
vctrl                                        0
x1.net8                               0.966293
x1.ng3                             3.93259e-09
x1.ng0                             3.93259e-09
x1.vco_switch_n_v2_0/selb          2.69671e-09
sel0                                       1.8
x1.ng1                             3.93259e-09
x1.vco_switch_n_v2_1/selb          2.69671e-09
sel1                                       1.8
x1.ng2                             3.93259e-09
x1.vco_switch_n_v2_2/selb          2.69671e-09
sel2                                       1.8
x1.vco_switch_n_v2_3/selb          2.69671e-09
sel3                                       1.8
x1.net3                               0.966293
x1.net5                                    1.8
x1.net2                                1.79523
x1.net4                              0.0839479
x1.pg3                                  1.6571
x1.pg0                                  1.6571
x1.vco_switch_p_0/selb             2.69671e-09
x1.pg1                                  1.6571
x1.pg2                                  1.6571
x1.vco_switch_p_2/selb             2.69671e-09
x1.vco_switch_p_1/selb             2.69671e-09
x1.vco_switch_p_3/selb             2.69671e-09
vdd                                        1.8
buf1_out                           2.60627e-09
net4                                4.9501e-09
net5                                4.9501e-09
net3                                4.9501e-09
buf16_out                           4.9501e-09
v1#branch                          1.44058e-11
vmeas_current_gnd#branch            1.2222e-05
vmeas_current_vdd#branch            1.2222e-05
v2#branch                         -1.22221e-05
vsel3#branch                                 0
vsel2#branch                                 0
vsel1#branch                                 0
vsel0#branch                                 0


No. of Data Rows : 7020

  Measurements for Transient Analysis


Error: measure  tvco_outside_while  (TRIG) : out of interval
 .meas tran tvco_outside_while trig v(out) val=0.5*1.8 rise=50 targ v(out) val=0.5*1.8 rise=51 failed!

Original line no.: 0, new internal line no.: 12460:
Undefined number [tvco_outside_while]
Original line no.: 0, new internal line no.: 12460:
Cannot compute substitute
fvco_outside_while  =   failed
supply_current_rms_outside_while=   4.44954e-05 from=  1.00000e-08 to=  4.00000e-08
ground_current_rms_outside_while=   5.10402e-05 from=  1.00000e-08 to=  4.00000e-08
vctrl_avg_outside_while=  3.000000e-01 from=  1.000000e-08 to=  2.000500e-08
vhigh_outside_while =  1.149947e-05 at=  1.050500e-08
vlow_outside_while  =  -1.148452e-05 at=  1.051500e-08
peak_to_peak_outside_while=  2.29840e-05
supply_current_rms  =   6.41630e-05 from=  0.00000e+00 to=  7.00000e-08

binary raw file "3-stage_cs-vco_tb_WITH_APPENDWRITE.raw"
Reset re-loads circuit ** sch_path: /home/darunix/gitsandboxes/vco/vco/xschem/3-stage_cs-vco_tb.sch

Circuit: ** sch_path: /home/darunix/gitsandboxes/vco/vco/xschem/3-stage_cs-vco_tb.sch

option SCALE: Scale is set to 1e-06 for instance and model parameters
Doing analysis at TEMP = 27.000000 and TNOM = 27.000000

Warning: v1: no DC value, transient time 0 value used

Initial Transient Solution
--------------------------

Node                                   Voltage
----                                   -------
x1.net7                                    1.8
x1.net6                            1.16209e-06
net1                                       1.8
net2                                         0
out                                6.80528e-09
x1.vgp                                  1.6571
vctrl                                        0
x1.net8                               0.966293
x1.ng3                             3.93259e-09
x1.ng0                             3.93259e-09
x1.vco_switch_n_v2_0/selb          2.69671e-09
sel0                                       1.8
x1.ng1                             3.93259e-09
x1.vco_switch_n_v2_1/selb          2.69671e-09
sel1                                       1.8
x1.ng2                             3.93259e-09
x1.vco_switch_n_v2_2/selb          2.69671e-09
sel2                                       1.8
x1.vco_switch_n_v2_3/selb          2.69671e-09
sel3                                       1.8
x1.net3                               0.966293
x1.net5                                    1.8
x1.net2                                1.79523
x1.net4                              0.0839479
x1.pg3                                  1.6571
x1.pg0                                  1.6571
x1.vco_switch_p_0/selb             2.69671e-09
x1.pg1                                  1.6571
x1.pg2                                  1.6571
x1.vco_switch_p_2/selb             2.69671e-09
x1.vco_switch_p_1/selb             2.69671e-09
x1.vco_switch_p_3/selb             2.69671e-09
vdd                                        1.8
buf1_out                           2.60627e-09
net4                                4.9501e-09
net5                                4.9501e-09
net3                                4.9501e-09
buf16_out                           4.9501e-09
v1#branch                          1.44058e-11
vmeas_current_gnd#branch            1.2222e-05
vmeas_current_vdd#branch            1.2222e-05
v2#branch                         -1.22221e-05
vsel3#branch                                 0
vsel2#branch                                 0
vsel1#branch                                 0
vsel0#branch                                 0


No. of Data Rows : 7020

  Measurements for Transient Analysis


Error: measure  tvco_outside_while  (TRIG) : out of interval
 .meas tran tvco_outside_while trig v(out) val=0.5*1.8 rise=50 targ v(out) val=0.5*1.8 rise=51 failed!

Original line no.: 0, new internal line no.: 12460:
Undefined number [tvco_outside_while]
Original line no.: 0, new internal line no.: 12460:
Cannot compute substitute
fvco_outside_while  =   failed
supply_current_rms_outside_while=   9.85946e-05 from=  1.00000e-08 to=  4.00000e-08
ground_current_rms_outside_while=   2.42277e-05 from=  1.00000e-08 to=  4.00000e-08
vctrl_avg_outside_while=  4.000000e-01 from=  1.000000e-08 to=  2.000500e-08
vhigh_outside_while =  9.979112e-06 at=  1.176500e-08
vlow_outside_while  =  -9.254459e-06 at=  1.115500e-08
peak_to_peak_outside_while=  1.92336e-05
supply_current_rms  =   1.03380e-04 from=  0.00000e+00 to=  7.00000e-08

binary raw file "3-stage_cs-vco_tb_WITH_APPENDWRITE.raw"
Reset re-loads circuit ** sch_path: /home/darunix/gitsandboxes/vco/vco/xschem/3-stage_cs-vco_tb.sch

Circuit: ** sch_path: /home/darunix/gitsandboxes/vco/vco/xschem/3-stage_cs-vco_tb.sch

option SCALE: Scale is set to 1e-06 for instance and model parameters
Doing analysis at TEMP = 27.000000 and TNOM = 27.000000

Warning: v1: no DC value, transient time 0 value used

Initial Transient Solution
--------------------------

Node                                   Voltage
----                                   -------
x1.net7                                    1.8
x1.net6                            1.16209e-06
net1                                       1.8
net2                                         0
out                                6.80528e-09
x1.vgp                                  1.6571
vctrl                                        0
x1.net8                               0.966293
x1.ng3                             3.93259e-09
x1.ng0                             3.93259e-09
x1.vco_switch_n_v2_0/selb          2.69671e-09
sel0                                       1.8
x1.ng1                             3.93259e-09
x1.vco_switch_n_v2_1/selb          2.69671e-09
sel1                                       1.8
x1.ng2                             3.93259e-09
x1.vco_switch_n_v2_2/selb          2.69671e-09
sel2                                       1.8
x1.vco_switch_n_v2_3/selb          2.69671e-09
sel3                                       1.8
x1.net3                               0.966293
x1.net5                                    1.8
x1.net2                                1.79523
x1.net4                              0.0839479
x1.pg3                                  1.6571
x1.pg0                                  1.6571
x1.vco_switch_p_0/selb             2.69671e-09
x1.pg1                                  1.6571
x1.pg2                                  1.6571
x1.vco_switch_p_2/selb             2.69671e-09
x1.vco_switch_p_1/selb             2.69671e-09
x1.vco_switch_p_3/selb             2.69671e-09
vdd                                        1.8
buf1_out                           2.60627e-09
net4                                4.9501e-09
net5                                4.9501e-09
net3                                4.9501e-09
buf16_out                           4.9501e-09
v1#branch                          1.44058e-11
vmeas_current_gnd#branch            1.2222e-05
vmeas_current_vdd#branch            1.2222e-05
v2#branch                         -1.22221e-05
vsel3#branch                                 0
vsel2#branch                                 0
vsel1#branch                                 0
vsel0#branch                                 0


No. of Data Rows : 7020

  Measurements for Transient Analysis


Error: measure  tvco_outside_while  (TRIG) : out of interval
 .meas tran tvco_outside_while trig v(out) val=0.5*1.8 rise=50 targ v(out) val=0.5*1.8 rise=51 failed!

Original line no.: 0, new internal line no.: 12460:
Undefined number [tvco_outside_while]
Original line no.: 0, new internal line no.: 12460:
Cannot compute substitute
fvco_outside_while  =   failed
supply_current_rms_outside_while=   9.12357e-05 from=  1.00000e-08 to=  4.00000e-08
ground_current_rms_outside_while=   7.38040e-05 from=  1.00000e-08 to=  4.00000e-08
vctrl_avg_outside_while=  5.000000e-01 from=  1.000000e-08 to=  2.000500e-08
vhigh_outside_while =  1.927195e+00 at=  1.102500e-08
vlow_outside_while  =  -8.209564e-02 at=  1.086500e-08
peak_to_peak_outside_while=  2.00929e+00
supply_current_rms  =   1.01895e-04 from=  0.00000e+00 to=  7.00000e-08

binary raw file "3-stage_cs-vco_tb_WITH_APPENDWRITE.raw"
Reset re-loads circuit ** sch_path: /home/darunix/gitsandboxes/vco/vco/xschem/3-stage_cs-vco_tb.sch

Circuit: ** sch_path: /home/darunix/gitsandboxes/vco/vco/xschem/3-stage_cs-vco_tb.sch

option SCALE: Scale is set to 1e-06 for instance and model parameters
Doing analysis at TEMP = 27.000000 and TNOM = 27.000000

Warning: v1: no DC value, transient time 0 value used

Initial Transient Solution
--------------------------

Node                                   Voltage
----                                   -------
x1.net7                                    1.8
x1.net6                            1.16209e-06
net1                                       1.8
net2                                         0
out                                6.80528e-09
x1.vgp                                  1.6571
vctrl                                        0
x1.net8                               0.966293
x1.ng3                             3.93259e-09
x1.ng0                             3.93259e-09
x1.vco_switch_n_v2_0/selb          2.69671e-09
sel0                                       1.8
x1.ng1                             3.93259e-09
x1.vco_switch_n_v2_1/selb          2.69671e-09
sel1                                       1.8
x1.ng2                             3.93259e-09
x1.vco_switch_n_v2_2/selb          2.69671e-09
sel2                                       1.8
x1.vco_switch_n_v2_3/selb          2.69671e-09
sel3                                       1.8
x1.net3                               0.966293
x1.net5                                    1.8
x1.net2                                1.79523
x1.net4                              0.0839479
x1.pg3                                  1.6571
x1.pg0                                  1.6571
x1.vco_switch_p_0/selb             2.69671e-09
x1.pg1                                  1.6571
x1.pg2                                  1.6571
x1.vco_switch_p_2/selb             2.69671e-09
x1.vco_switch_p_1/selb             2.69671e-09
x1.vco_switch_p_3/selb             2.69671e-09
vdd                                        1.8
buf1_out                           2.60627e-09
net4                                4.9501e-09
net5                                4.9501e-09
net3                                4.9501e-09
buf16_out                           4.9501e-09
v1#branch                          1.44058e-11
vmeas_current_gnd#branch            1.2222e-05
vmeas_current_vdd#branch            1.2222e-05
v2#branch                         -1.22221e-05
vsel3#branch                                 0
vsel2#branch                                 0
vsel1#branch                                 0
vsel0#branch                                 0


No. of Data Rows : 7020

  Measurements for Transient Analysis


Error: measure  tvco_outside_while  (TRIG) : out of interval
 .meas tran tvco_outside_while trig v(out) val=0.5*1.8 rise=50 targ v(out) val=0.5*1.8 rise=51 failed!

Original line no.: 0, new internal line no.: 12460:
Undefined number [tvco_outside_while]
Original line no.: 0, new internal line no.: 12460:
Cannot compute substitute
fvco_outside_while  =   failed
supply_current_rms_outside_while=   3.26686e-04 from=  1.00000e-08 to=  4.00000e-08
ground_current_rms_outside_while=   1.54276e-04 from=  1.00000e-08 to=  4.00000e-08
vctrl_avg_outside_while=  6.000000e-01 from=  1.000000e-08 to=  2.000500e-08
vhigh_outside_while =  1.927504e+00 at=  1.292500e-08
vlow_outside_while  =  -7.986223e-02 at=  1.011500e-08
peak_to_peak_outside_while=  2.00737e+00
supply_current_rms  =   2.78701e-04 from=  0.00000e+00 to=  7.00000e-08

binary raw file "3-stage_cs-vco_tb_WITH_APPENDWRITE.raw"
Reset re-loads circuit ** sch_path: /home/darunix/gitsandboxes/vco/vco/xschem/3-stage_cs-vco_tb.sch

Circuit: ** sch_path: /home/darunix/gitsandboxes/vco/vco/xschem/3-stage_cs-vco_tb.sch

option SCALE: Scale is set to 1e-06 for instance and model parameters
Doing analysis at TEMP = 27.000000 and TNOM = 27.000000

Warning: v1: no DC value, transient time 0 value used

Initial Transient Solution
--------------------------

Node                                   Voltage
----                                   -------
x1.net7                                    1.8
x1.net6                            1.16209e-06
net1                                       1.8
net2                                         0
out                                6.80528e-09
x1.vgp                                  1.6571
vctrl                                        0
x1.net8                               0.966293
x1.ng3                             3.93259e-09
x1.ng0                             3.93259e-09
x1.vco_switch_n_v2_0/selb          2.69671e-09
sel0                                       1.8
x1.ng1                             3.93259e-09
x1.vco_switch_n_v2_1/selb          2.69671e-09
sel1                                       1.8
x1.ng2                             3.93259e-09
x1.vco_switch_n_v2_2/selb          2.69671e-09
sel2                                       1.8
x1.vco_switch_n_v2_3/selb          2.69671e-09
sel3                                       1.8
x1.net3                               0.966293
x1.net5                                    1.8
x1.net2                                1.79523
x1.net4                              0.0839479
x1.pg3                                  1.6571
x1.pg0                                  1.6571
x1.vco_switch_p_0/selb             2.69671e-09
x1.pg1                                  1.6571
x1.pg2                                  1.6571
x1.vco_switch_p_2/selb             2.69671e-09
x1.vco_switch_p_1/selb             2.69671e-09
x1.vco_switch_p_3/selb             2.69671e-09
vdd                                        1.8
buf1_out                           2.60627e-09
net4                                4.9501e-09
net5                                4.9501e-09
net3                                4.9501e-09
buf16_out                           4.9501e-09
v1#branch                          1.44058e-11
vmeas_current_gnd#branch            1.2222e-05
vmeas_current_vdd#branch            1.2222e-05
v2#branch                         -1.22221e-05
vsel3#branch                                 0
vsel2#branch                                 0
vsel1#branch                                 0
vsel0#branch                                 0


No. of Data Rows : 7020

  Measurements for Transient Analysis

tvco_outside_while  =  3.875399e-10 targ=  2.310807e-08 trig=  2.272053e-08
fvco_outside_while  =  2.58038e+09
supply_current_rms_outside_while=   2.98478e-04 from=  1.00000e-08 to=  4.00000e-08
ground_current_rms_outside_while=   3.03765e-04 from=  1.00000e-08 to=  4.00000e-08
vctrl_avg_outside_while=  7.000000e-01 from=  1.000000e-08 to=  2.000500e-08
vhigh_outside_while =  1.928845e+00 at=  1.014500e-08
vlow_outside_while  =  -7.366888e-02 at=  1.843500e-08
peak_to_peak_outside_while=  2.00251e+00
supply_current_rms  =   2.90760e-04 from=  0.00000e+00 to=  7.00000e-08

binary raw file "3-stage_cs-vco_tb_WITH_APPENDWRITE.raw"
Reset re-loads circuit ** sch_path: /home/darunix/gitsandboxes/vco/vco/xschem/3-stage_cs-vco_tb.sch

Circuit: ** sch_path: /home/darunix/gitsandboxes/vco/vco/xschem/3-stage_cs-vco_tb.sch

option SCALE: Scale is set to 1e-06 for instance and model parameters
Doing analysis at TEMP = 27.000000 and TNOM = 27.000000

Warning: v1: no DC value, transient time 0 value used

Initial Transient Solution
--------------------------

Node                                   Voltage
----                                   -------
x1.net7                                    1.8
x1.net6                            1.16209e-06
net1                                       1.8
net2                                         0
out                                6.80528e-09
x1.vgp                                  1.6571
vctrl                                        0
x1.net8                               0.966293
x1.ng3                             3.93259e-09
x1.ng0                             3.93259e-09
x1.vco_switch_n_v2_0/selb          2.69671e-09
sel0                                       1.8
x1.ng1                             3.93259e-09
x1.vco_switch_n_v2_1/selb          2.69671e-09
sel1                                       1.8
x1.ng2                             3.93259e-09
x1.vco_switch_n_v2_2/selb          2.69671e-09
sel2                                       1.8
x1.vco_switch_n_v2_3/selb          2.69671e-09
sel3                                       1.8
x1.net3                               0.966293
x1.net5                                    1.8
x1.net2                                1.79523
x1.net4                              0.0839479
x1.pg3                                  1.6571
x1.pg0                                  1.6571
x1.vco_switch_p_0/selb             2.69671e-09
x1.pg1                                  1.6571
x1.pg2                                  1.6571
x1.vco_switch_p_2/selb             2.69671e-09
x1.vco_switch_p_1/selb             2.69671e-09
x1.vco_switch_p_3/selb             2.69671e-09
vdd                                        1.8
buf1_out                           2.60627e-09
net4                                4.9501e-09
net5                                4.9501e-09
net3                                4.9501e-09
buf16_out                           4.9501e-09
v1#branch                          1.44058e-11
vmeas_current_gnd#branch            1.2222e-05
vmeas_current_vdd#branch            1.2222e-05
v2#branch                         -1.22221e-05
vsel3#branch                                 0
vsel2#branch                                 0
vsel1#branch                                 0
vsel0#branch                                 0


No. of Data Rows : 7020

  Measurements for Transient Analysis

tvco_outside_while  =  2.710748e-10 targ=  1.642394e-08 trig=  1.615286e-08
fvco_outside_while  =  3.68902e+09
supply_current_rms_outside_while=   4.26644e-04 from=  1.00000e-08 to=  4.00000e-08
ground_current_rms_outside_while=   4.27182e-04 from=  1.00000e-08 to=  4.00000e-08
vctrl_avg_outside_while=  8.000000e-01 from=  1.000000e-08 to=  2.000500e-08
vhigh_outside_while =  1.925582e+00 at=  1.029500e-08
vlow_outside_while  =  -8.005204e-02 at=  1.260500e-08
peak_to_peak_outside_while=  2.00563e+00
supply_current_rms  =   4.17486e-04 from=  0.00000e+00 to=  7.00000e-08

binary raw file "3-stage_cs-vco_tb_WITH_APPENDWRITE.raw"
Reset re-loads circuit ** sch_path: /home/darunix/gitsandboxes/vco/vco/xschem/3-stage_cs-vco_tb.sch

Circuit: ** sch_path: /home/darunix/gitsandboxes/vco/vco/xschem/3-stage_cs-vco_tb.sch

option SCALE: Scale is set to 1e-06 for instance and model parameters
Doing analysis at TEMP = 27.000000 and TNOM = 27.000000

Warning: v1: no DC value, transient time 0 value used

Initial Transient Solution
--------------------------

Node                                   Voltage
----                                   -------
x1.net7                                    1.8
x1.net6                            1.16209e-06
net1                                       1.8
net2                                         0
out                                6.80528e-09
x1.vgp                                  1.6571
vctrl                                        0
x1.net8                               0.966293
x1.ng3                             3.93259e-09
x1.ng0                             3.93259e-09
x1.vco_switch_n_v2_0/selb          2.69671e-09
sel0                                       1.8
x1.ng1                             3.93259e-09
x1.vco_switch_n_v2_1/selb          2.69671e-09
sel1                                       1.8
x1.ng2                             3.93259e-09
x1.vco_switch_n_v2_2/selb          2.69671e-09
sel2                                       1.8
x1.vco_switch_n_v2_3/selb          2.69671e-09
sel3                                       1.8
x1.net3                               0.966293
x1.net5                                    1.8
x1.net2                                1.79523
x1.net4                              0.0839479
x1.pg3                                  1.6571
x1.pg0                                  1.6571
x1.vco_switch_p_0/selb             2.69671e-09
x1.pg1                                  1.6571
x1.pg2                                  1.6571
x1.vco_switch_p_2/selb             2.69671e-09
x1.vco_switch_p_1/selb             2.69671e-09
x1.vco_switch_p_3/selb             2.69671e-09
vdd                                        1.8
buf1_out                           2.60627e-09
net4                                4.9501e-09
net5                                4.9501e-09
net3                                4.9501e-09
buf16_out                           4.9501e-09
v1#branch                          1.44058e-11
vmeas_current_gnd#branch            1.2222e-05
vmeas_current_vdd#branch            1.2222e-05
v2#branch                         -1.22221e-05
vsel3#branch                                 0
vsel2#branch                                 0
vsel1#branch                                 0
vsel0#branch                                 0


No. of Data Rows : 7020

  Measurements for Transient Analysis

tvco_outside_while  =  2.532283e-10 targ=  1.494354e-08 trig=  1.469031e-08
fvco_outside_while  =  3.94901e+09
supply_current_rms_outside_while=   4.63559e-04 from=  1.00000e-08 to=  4.00000e-08
ground_current_rms_outside_while=   4.59998e-04 from=  1.00000e-08 to=  4.00000e-08
vctrl_avg_outside_while=  9.000000e-01 from=  1.000000e-08 to=  2.000500e-08
vhigh_outside_while =  1.918177e+00 at=  1.224500e-08
vlow_outside_while  =  -8.106337e-02 at=  1.112500e-08
peak_to_peak_outside_while=  1.99924e+00
supply_current_rms  =   4.55163e-04 from=  0.00000e+00 to=  7.00000e-08

binary raw file "3-stage_cs-vco_tb_WITH_APPENDWRITE.raw"
Reset re-loads circuit ** sch_path: /home/darunix/gitsandboxes/vco/vco/xschem/3-stage_cs-vco_tb.sch

Circuit: ** sch_path: /home/darunix/gitsandboxes/vco/vco/xschem/3-stage_cs-vco_tb.sch

option SCALE: Scale is set to 1e-06 for instance and model parameters
Doing analysis at TEMP = 27.000000 and TNOM = 27.000000

Warning: v1: no DC value, transient time 0 value used

Initial Transient Solution
--------------------------

Node                                   Voltage
----                                   -------
x1.net7                                    1.8
x1.net6                            1.16209e-06
net1                                       1.8
net2                                         0
out                                6.80528e-09
x1.vgp                                  1.6571
vctrl                                        0
x1.net8                               0.966293
x1.ng3                             3.93259e-09
x1.ng0                             3.93259e-09
x1.vco_switch_n_v2_0/selb          2.69671e-09
sel0                                       1.8
x1.ng1                             3.93259e-09
x1.vco_switch_n_v2_1/selb          2.69671e-09
sel1                                       1.8
x1.ng2                             3.93259e-09
x1.vco_switch_n_v2_2/selb          2.69671e-09
sel2                                       1.8
x1.vco_switch_n_v2_3/selb          2.69671e-09
sel3                                       1.8
x1.net3                               0.966293
x1.net5                                    1.8
x1.net2                                1.79523
x1.net4                              0.0839479
x1.pg3                                  1.6571
x1.pg0                                  1.6571
x1.vco_switch_p_0/selb             2.69671e-09
x1.pg1                                  1.6571
x1.pg2                                  1.6571
x1.vco_switch_p_2/selb             2.69671e-09
x1.vco_switch_p_1/selb             2.69671e-09
x1.vco_switch_p_3/selb             2.69671e-09
vdd                                        1.8
buf1_out                           2.60627e-09
net4                                4.9501e-09
net5                                4.9501e-09
net3                                4.9501e-09
buf16_out                           4.9501e-09
v1#branch                          1.44058e-11
vmeas_current_gnd#branch            1.2222e-05
vmeas_current_vdd#branch            1.2222e-05
v2#branch                         -1.22221e-05
vsel3#branch                                 0
vsel2#branch                                 0
vsel1#branch                                 0
vsel0#branch                                 0


No. of Data Rows : 7020

  Measurements for Transient Analysis

tvco_outside_while  =  2.474412e-10 targ=  1.457409e-08 trig=  1.432665e-08
fvco_outside_while  =  4.04136e+09
supply_current_rms_outside_while=   4.85510e-04 from=  1.00000e-08 to=  4.00000e-08
ground_current_rms_outside_while=   4.85989e-04 from=  1.00000e-08 to=  4.00000e-08
vctrl_avg_outside_while=  1.000000e+00 from=  1.000000e-08 to=  2.000500e-08
vhigh_outside_while =  1.910882e+00 at=  1.118500e-08
vlow_outside_while  =  -8.149412e-02 at=  1.875500e-08
peak_to_peak_outside_while=  1.99238e+00
supply_current_rms  =   4.77979e-04 from=  0.00000e+00 to=  7.00000e-08

binary raw file "3-stage_cs-vco_tb_WITH_APPENDWRITE.raw"
Reset re-loads circuit ** sch_path: /home/darunix/gitsandboxes/vco/vco/xschem/3-stage_cs-vco_tb.sch

Circuit: ** sch_path: /home/darunix/gitsandboxes/vco/vco/xschem/3-stage_cs-vco_tb.sch

option SCALE: Scale is set to 1e-06 for instance and model parameters
Doing analysis at TEMP = 27.000000 and TNOM = 27.000000

Warning: v1: no DC value, transient time 0 value used

Initial Transient Solution
--------------------------

Node                                   Voltage
----                                   -------
x1.net7                                    1.8
x1.net6                            1.16209e-06
net1                                       1.8
net2                                         0
out                                6.80528e-09
x1.vgp                                  1.6571
vctrl                                        0
x1.net8                               0.966293
x1.ng3                             3.93259e-09
x1.ng0                             3.93259e-09
x1.vco_switch_n_v2_0/selb          2.69671e-09
sel0                                       1.8
x1.ng1                             3.93259e-09
x1.vco_switch_n_v2_1/selb          2.69671e-09
sel1                                       1.8
x1.ng2                             3.93259e-09
x1.vco_switch_n_v2_2/selb          2.69671e-09
sel2                                       1.8
x1.vco_switch_n_v2_3/selb          2.69671e-09
sel3                                       1.8
x1.net3                               0.966293
x1.net5                                    1.8
x1.net2                                1.79523
x1.net4                              0.0839479
x1.pg3                                  1.6571
x1.pg0                                  1.6571
x1.vco_switch_p_0/selb             2.69671e-09
x1.pg1                                  1.6571
x1.pg2                                  1.6571
x1.vco_switch_p_2/selb             2.69671e-09
x1.vco_switch_p_1/selb             2.69671e-09
x1.vco_switch_p_3/selb             2.69671e-09
vdd                                        1.8
buf1_out                           2.60627e-09
net4                                4.9501e-09
net5                                4.9501e-09
net3                                4.9501e-09
buf16_out                           4.9501e-09
v1#branch                          1.44058e-11
vmeas_current_gnd#branch            1.2222e-05
vmeas_current_vdd#branch            1.2222e-05
v2#branch                         -1.22221e-05
vsel3#branch                                 0
vsel2#branch                                 0
vsel1#branch                                 0
vsel0#branch                                 0


No. of Data Rows : 7020

  Measurements for Transient Analysis

tvco_outside_while  =  2.448005e-10 targ=  1.439228e-08 trig=  1.414748e-08
fvco_outside_while  =  4.08496e+09
supply_current_rms_outside_while=   5.10367e-04 from=  1.00000e-08 to=  4.00000e-08
ground_current_rms_outside_while=   5.11429e-04 from=  1.00000e-08 to=  4.00000e-08
vctrl_avg_outside_while=  1.100000e+00 from=  1.000000e-08 to=  2.000500e-08
vhigh_outside_while =  1.903555e+00 at=  1.103500e-08
vlow_outside_while  =  -8.169848e-02 at=  1.926500e-08
peak_to_peak_outside_while=  1.98525e+00
supply_current_rms  =   5.02605e-04 from=  0.00000e+00 to=  7.00000e-08

binary raw file "3-stage_cs-vco_tb_WITH_APPENDWRITE.raw"
Reset re-loads circuit ** sch_path: /home/darunix/gitsandboxes/vco/vco/xschem/3-stage_cs-vco_tb.sch

Circuit: ** sch_path: /home/darunix/gitsandboxes/vco/vco/xschem/3-stage_cs-vco_tb.sch

option SCALE: Scale is set to 1e-06 for instance and model parameters
Doing analysis at TEMP = 27.000000 and TNOM = 27.000000

Warning: v1: no DC value, transient time 0 value used

Initial Transient Solution
--------------------------

Node                                   Voltage
----                                   -------
x1.net7                                    1.8
x1.net6                            1.16209e-06
net1                                       1.8
net2                                         0
out                                6.80528e-09
x1.vgp                                  1.6571
vctrl                                        0
x1.net8                               0.966293
x1.ng3                             3.93259e-09
x1.ng0                             3.93259e-09
x1.vco_switch_n_v2_0/selb          2.69671e-09
sel0                                       1.8
x1.ng1                             3.93259e-09
x1.vco_switch_n_v2_1/selb          2.69671e-09
sel1                                       1.8
x1.ng2                             3.93259e-09
x1.vco_switch_n_v2_2/selb          2.69671e-09
sel2                                       1.8
x1.vco_switch_n_v2_3/selb          2.69671e-09
sel3                                       1.8
x1.net3                               0.966293
x1.net5                                    1.8
x1.net2                                1.79523
x1.net4                              0.0839479
x1.pg3                                  1.6571
x1.pg0                                  1.6571
x1.vco_switch_p_0/selb             2.69671e-09
x1.pg1                                  1.6571
x1.pg2                                  1.6571
x1.vco_switch_p_2/selb             2.69671e-09
x1.vco_switch_p_1/selb             2.69671e-09
x1.vco_switch_p_3/selb             2.69671e-09
vdd                                        1.8
buf1_out                           2.60627e-09
net4                                4.9501e-09
net5                                4.9501e-09
net3                                4.9501e-09
buf16_out                           4.9501e-09
v1#branch                          1.44058e-11
vmeas_current_gnd#branch            1.2222e-05
vmeas_current_vdd#branch            1.2222e-05
v2#branch                         -1.22221e-05
vsel3#branch                                 0
vsel2#branch                                 0
vsel1#branch                                 0
vsel0#branch                                 0


No. of Data Rows : 7020

  Measurements for Transient Analysis

tvco_outside_while  =  2.434474e-10 targ=  1.429111e-08 trig=  1.404766e-08
fvco_outside_while  =  4.10766e+09
supply_current_rms_outside_while=   5.30029e-04 from=  1.00000e-08 to=  4.00000e-08
ground_current_rms_outside_while=   5.32505e-04 from=  1.00000e-08 to=  4.00000e-08
vctrl_avg_outside_while=  1.200000e+00 from=  1.000000e-08 to=  2.000500e-08
vhigh_outside_while =  1.898660e+00 at=  1.265500e-08
vlow_outside_while  =  -8.175048e-02 at=  1.158500e-08
peak_to_peak_outside_while=  1.98041e+00
supply_current_rms  =   5.21818e-04 from=  0.00000e+00 to=  7.00000e-08

binary raw file "3-stage_cs-vco_tb_WITH_APPENDWRITE.raw"
Reset re-loads circuit ** sch_path: /home/darunix/gitsandboxes/vco/vco/xschem/3-stage_cs-vco_tb.sch

Circuit: ** sch_path: /home/darunix/gitsandboxes/vco/vco/xschem/3-stage_cs-vco_tb.sch

option SCALE: Scale is set to 1e-06 for instance and model parameters
Doing analysis at TEMP = 27.000000 and TNOM = 27.000000

Warning: v1: no DC value, transient time 0 value used

Initial Transient Solution
--------------------------

Node                                   Voltage
----                                   -------
x1.net7                                    1.8
x1.net6                            1.16209e-06
net1                                       1.8
net2                                         0
out                                6.80528e-09
x1.vgp                                  1.6571
vctrl                                        0
x1.net8                               0.966293
x1.ng3                             3.93259e-09
x1.ng0                             3.93259e-09
x1.vco_switch_n_v2_0/selb          2.69671e-09
sel0                                       1.8
x1.ng1                             3.93259e-09
x1.vco_switch_n_v2_1/selb          2.69671e-09
sel1                                       1.8
x1.ng2                             3.93259e-09
x1.vco_switch_n_v2_2/selb          2.69671e-09
sel2                                       1.8
x1.vco_switch_n_v2_3/selb          2.69671e-09
sel3                                       1.8
x1.net3                               0.966293
x1.net5                                    1.8
x1.net2                                1.79523
x1.net4                              0.0839479
x1.pg3                                  1.6571
x1.pg0                                  1.6571
x1.vco_switch_p_0/selb             2.69671e-09
x1.pg1                                  1.6571
x1.pg2                                  1.6571
x1.vco_switch_p_2/selb             2.69671e-09
x1.vco_switch_p_1/selb             2.69671e-09
x1.vco_switch_p_3/selb             2.69671e-09
vdd                                        1.8
buf1_out                           2.60627e-09
net4                                4.9501e-09
net5                                4.9501e-09
net3                                4.9501e-09
buf16_out                           4.9501e-09
v1#branch                          1.44058e-11
vmeas_current_gnd#branch            1.2222e-05
vmeas_current_vdd#branch            1.2222e-05
v2#branch                         -1.22221e-05
vsel3#branch                                 0
vsel2#branch                                 0
vsel1#branch                                 0
vsel0#branch                                 0


No. of Data Rows : 7020

  Measurements for Transient Analysis

tvco_outside_while  =  2.431595e-10 targ=  1.423302e-08 trig=  1.398986e-08
fvco_outside_while  =  4.11253e+09
supply_current_rms_outside_while=   5.40731e-04 from=  1.00000e-08 to=  4.00000e-08
ground_current_rms_outside_while=   5.43543e-04 from=  1.00000e-08 to=  4.00000e-08
vctrl_avg_outside_while=  1.300000e+00 from=  1.000000e-08 to=  2.000500e-08
vhigh_outside_while =  1.896470e+00 at=  1.697500e-08
vlow_outside_while  =  -8.173207e-02 at=  1.323500e-08
peak_to_peak_outside_while=  1.97820e+00
supply_current_rms  =   5.32486e-04 from=  0.00000e+00 to=  7.00000e-08

binary raw file "3-stage_cs-vco_tb_WITH_APPENDWRITE.raw"
Reset re-loads circuit ** sch_path: /home/darunix/gitsandboxes/vco/vco/xschem/3-stage_cs-vco_tb.sch

Circuit: ** sch_path: /home/darunix/gitsandboxes/vco/vco/xschem/3-stage_cs-vco_tb.sch

option SCALE: Scale is set to 1e-06 for instance and model parameters
Doing analysis at TEMP = 27.000000 and TNOM = 27.000000

Warning: v1: no DC value, transient time 0 value used

Initial Transient Solution
--------------------------

Node                                   Voltage
----                                   -------
x1.net7                                    1.8
x1.net6                            1.16209e-06
net1                                       1.8
net2                                         0
out                                6.80528e-09
x1.vgp                                  1.6571
vctrl                                        0
x1.net8                               0.966293
x1.ng3                             3.93259e-09
x1.ng0                             3.93259e-09
x1.vco_switch_n_v2_0/selb          2.69671e-09
sel0                                       1.8
x1.ng1                             3.93259e-09
x1.vco_switch_n_v2_1/selb          2.69671e-09
sel1                                       1.8
x1.ng2                             3.93259e-09
x1.vco_switch_n_v2_2/selb          2.69671e-09
sel2                                       1.8
x1.vco_switch_n_v2_3/selb          2.69671e-09
sel3                                       1.8
x1.net3                               0.966293
x1.net5                                    1.8
x1.net2                                1.79523
x1.net4                              0.0839479
x1.pg3                                  1.6571
x1.pg0                                  1.6571
x1.vco_switch_p_0/selb             2.69671e-09
x1.pg1                                  1.6571
x1.pg2                                  1.6571
x1.vco_switch_p_2/selb             2.69671e-09
x1.vco_switch_p_1/selb             2.69671e-09
x1.vco_switch_p_3/selb             2.69671e-09
vdd                                        1.8
buf1_out                           2.60627e-09
net4                                4.9501e-09
net5                                4.9501e-09
net3                                4.9501e-09
buf16_out                           4.9501e-09
v1#branch                          1.44058e-11
vmeas_current_gnd#branch            1.2222e-05
vmeas_current_vdd#branch            1.2222e-05
v2#branch                         -1.22221e-05
vsel3#branch                                 0
vsel2#branch                                 0
vsel1#branch                                 0
vsel0#branch                                 0


No. of Data Rows : 7020

  Measurements for Transient Analysis

tvco_outside_while  =  2.430599e-10 targ=  1.419495e-08 trig=  1.395189e-08
fvco_outside_while  =  4.11421e+09
supply_current_rms_outside_while=   5.47350e-04 from=  1.00000e-08 to=  4.00000e-08
ground_current_rms_outside_while=   5.50000e-04 from=  1.00000e-08 to=  4.00000e-08
vctrl_avg_outside_while=  1.400000e+00 from=  1.000000e-08 to=  2.000500e-08
vhigh_outside_while =  1.895278e+00 at=  1.353500e-08
vlow_outside_while  =  -8.172142e-02 at=  1.659500e-08
peak_to_peak_outside_while=  1.97700e+00
supply_current_rms  =   5.39058e-04 from=  0.00000e+00 to=  7.00000e-08

binary raw file "3-stage_cs-vco_tb_WITH_APPENDWRITE.raw"
Reset re-loads circuit ** sch_path: /home/darunix/gitsandboxes/vco/vco/xschem/3-stage_cs-vco_tb.sch

Circuit: ** sch_path: /home/darunix/gitsandboxes/vco/vco/xschem/3-stage_cs-vco_tb.sch

option SCALE: Scale is set to 1e-06 for instance and model parameters
Doing analysis at TEMP = 27.000000 and TNOM = 27.000000

Warning: v1: no DC value, transient time 0 value used

Initial Transient Solution
--------------------------

Node                                   Voltage
----                                   -------
x1.net7                                    1.8
x1.net6                            1.16209e-06
net1                                       1.8
net2                                         0
out                                6.80528e-09
x1.vgp                                  1.6571
vctrl                                        0
x1.net8                               0.966293
x1.ng3                             3.93259e-09
x1.ng0                             3.93259e-09
x1.vco_switch_n_v2_0/selb          2.69671e-09
sel0                                       1.8
x1.ng1                             3.93259e-09
x1.vco_switch_n_v2_1/selb          2.69671e-09
sel1                                       1.8
x1.ng2                             3.93259e-09
x1.vco_switch_n_v2_2/selb          2.69671e-09
sel2                                       1.8
x1.vco_switch_n_v2_3/selb          2.69671e-09
sel3                                       1.8
x1.net3                               0.966293
x1.net5                                    1.8
x1.net2                                1.79523
x1.net4                              0.0839479
x1.pg3                                  1.6571
x1.pg0                                  1.6571
x1.vco_switch_p_0/selb             2.69671e-09
x1.pg1                                  1.6571
x1.pg2                                  1.6571
x1.vco_switch_p_2/selb             2.69671e-09
x1.vco_switch_p_1/selb             2.69671e-09
x1.vco_switch_p_3/selb             2.69671e-09
vdd                                        1.8
buf1_out                           2.60627e-09
net4                                4.9501e-09
net5                                4.9501e-09
net3                                4.9501e-09
buf16_out                           4.9501e-09
v1#branch                          1.44058e-11
vmeas_current_gnd#branch            1.2222e-05
vmeas_current_vdd#branch            1.2222e-05
v2#branch                         -1.22221e-05
vsel3#branch                                 0
vsel2#branch                                 0
vsel1#branch                                 0
vsel0#branch                                 0


No. of Data Rows : 7020

  Measurements for Transient Analysis

tvco_outside_while  =  2.422177e-10 targ=  1.416753e-08 trig=  1.392531e-08
fvco_outside_while  =  4.12852e+09
supply_current_rms_outside_while=   5.52316e-04 from=  1.00000e-08 to=  4.00000e-08
ground_current_rms_outside_while=   5.53607e-04 from=  1.00000e-08 to=  4.00000e-08
vctrl_avg_outside_while=  1.500000e+00 from=  1.000000e-08 to=  2.000500e-08
vhigh_outside_while =  1.894516e+00 at=  1.520500e-08
vlow_outside_while  =  -8.170435e-02 at=  1.656500e-08
peak_to_peak_outside_while=  1.97622e+00
supply_current_rms  =   5.43861e-04 from=  0.00000e+00 to=  7.00000e-08

binary raw file "3-stage_cs-vco_tb_WITH_APPENDWRITE.raw"
Reset re-loads circuit ** sch_path: /home/darunix/gitsandboxes/vco/vco/xschem/3-stage_cs-vco_tb.sch

Circuit: ** sch_path: /home/darunix/gitsandboxes/vco/vco/xschem/3-stage_cs-vco_tb.sch

option SCALE: Scale is set to 1e-06 for instance and model parameters
Doing analysis at TEMP = 27.000000 and TNOM = 27.000000

Warning: v1: no DC value, transient time 0 value used

Initial Transient Solution
--------------------------

Node                                   Voltage
----                                   -------
x1.net7                                    1.8
x1.net6                            1.16209e-06
net1                                       1.8
net2                                         0
out                                6.80528e-09
x1.vgp                                  1.6571
vctrl                                        0
x1.net8                               0.966293
x1.ng3                             3.93259e-09
x1.ng0                             3.93259e-09
x1.vco_switch_n_v2_0/selb          2.69671e-09
sel0                                       1.8
x1.ng1                             3.93259e-09
x1.vco_switch_n_v2_1/selb          2.69671e-09
sel1                                       1.8
x1.ng2                             3.93259e-09
x1.vco_switch_n_v2_2/selb          2.69671e-09
sel2                                       1.8
x1.vco_switch_n_v2_3/selb          2.69671e-09
sel3                                       1.8
x1.net3                               0.966293
x1.net5                                    1.8
x1.net2                                1.79523
x1.net4                              0.0839479
x1.pg3                                  1.6571
x1.pg0                                  1.6571
x1.vco_switch_p_0/selb             2.69671e-09
x1.pg1                                  1.6571
x1.pg2                                  1.6571
x1.vco_switch_p_2/selb             2.69671e-09
x1.vco_switch_p_1/selb             2.69671e-09
x1.vco_switch_p_3/selb             2.69671e-09
vdd                                        1.8
buf1_out                           2.60627e-09
net4                                4.9501e-09
net5                                4.9501e-09
net3                                4.9501e-09
buf16_out                           4.9501e-09
v1#branch                          1.44058e-11
vmeas_current_gnd#branch            1.2222e-05
vmeas_current_vdd#branch            1.2222e-05
v2#branch                         -1.22221e-05
vsel3#branch                                 0
vsel2#branch                                 0
vsel1#branch                                 0
vsel0#branch                                 0


No. of Data Rows : 7020

  Measurements for Transient Analysis

tvco_outside_while  =  2.420747e-10 targ=  1.414711e-08 trig=  1.390504e-08
fvco_outside_while  =  4.13096e+09
supply_current_rms_outside_while=   5.55415e-04 from=  1.00000e-08 to=  4.00000e-08
ground_current_rms_outside_while=   5.56689e-04 from=  1.00000e-08 to=  4.00000e-08
vctrl_avg_outside_while=  1.600000e+00 from=  1.000000e-08 to=  2.000500e-08
vhigh_outside_while =  1.893995e+00 at=  1.760500e-08
vlow_outside_while  =  -8.168997e-02 at=  1.678500e-08
peak_to_peak_outside_while=  1.97568e+00
supply_current_rms  =   5.47271e-04 from=  0.00000e+00 to=  7.00000e-08

binary raw file "3-stage_cs-vco_tb_WITH_APPENDWRITE.raw"
Reset re-loads circuit ** sch_path: /home/darunix/gitsandboxes/vco/vco/xschem/3-stage_cs-vco_tb.sch

Circuit: ** sch_path: /home/darunix/gitsandboxes/vco/vco/xschem/3-stage_cs-vco_tb.sch

option SCALE: Scale is set to 1e-06 for instance and model parameters
Doing analysis at TEMP = 27.000000 and TNOM = 27.000000

Warning: v1: no DC value, transient time 0 value used

Initial Transient Solution
--------------------------

Node                                   Voltage
----                                   -------
x1.net7                                    1.8
x1.net6                            1.16209e-06
net1                                       1.8
net2                                         0
out                                6.80528e-09
x1.vgp                                  1.6571
vctrl                                        0
x1.net8                               0.966293
x1.ng3                             3.93259e-09
x1.ng0                             3.93259e-09
x1.vco_switch_n_v2_0/selb          2.69671e-09
sel0                                       1.8
x1.ng1                             3.93259e-09
x1.vco_switch_n_v2_1/selb          2.69671e-09
sel1                                       1.8
x1.ng2                             3.93259e-09
x1.vco_switch_n_v2_2/selb          2.69671e-09
sel2                                       1.8
x1.vco_switch_n_v2_3/selb          2.69671e-09
sel3                                       1.8
x1.net3                               0.966293
x1.net5                                    1.8
x1.net2                                1.79523
x1.net4                              0.0839479
x1.pg3                                  1.6571
x1.pg0                                  1.6571
x1.vco_switch_p_0/selb             2.69671e-09
x1.pg1                                  1.6571
x1.pg2                                  1.6571
x1.vco_switch_p_2/selb             2.69671e-09
x1.vco_switch_p_1/selb             2.69671e-09
x1.vco_switch_p_3/selb             2.69671e-09
vdd                                        1.8
buf1_out                           2.60627e-09
net4                                4.9501e-09
net5                                4.9501e-09
net3                                4.9501e-09
buf16_out                           4.9501e-09
v1#branch                          1.44058e-11
vmeas_current_gnd#branch            1.2222e-05
vmeas_current_vdd#branch            1.2222e-05
v2#branch                         -1.22221e-05
vsel3#branch                                 0
vsel2#branch                                 0
vsel1#branch                                 0
vsel0#branch                                 0


No. of Data Rows : 7020

  Measurements for Transient Analysis

tvco_outside_while  =  2.419174e-10 targ=  1.413087e-08 trig=  1.388895e-08
fvco_outside_while  =  4.13364e+09
supply_current_rms_outside_while=   5.57941e-04 from=  1.00000e-08 to=  4.00000e-08
ground_current_rms_outside_while=   5.59083e-04 from=  1.00000e-08 to=  4.00000e-08
vctrl_avg_outside_while=  1.700000e+00 from=  1.000000e-08 to=  2.000500e-08
vhigh_outside_while =  1.893622e+00 at=  1.734500e-08
vlow_outside_while  =  -8.168715e-02 at=  1.410500e-08
peak_to_peak_outside_while=  1.97531e+00
supply_current_rms  =   5.49807e-04 from=  0.00000e+00 to=  7.00000e-08

binary raw file "3-stage_cs-vco_tb_WITH_APPENDWRITE.raw"
Reset re-loads circuit ** sch_path: /home/darunix/gitsandboxes/vco/vco/xschem/3-stage_cs-vco_tb.sch

Circuit: ** sch_path: /home/darunix/gitsandboxes/vco/vco/xschem/3-stage_cs-vco_tb.sch

option SCALE: Scale is set to 1e-06 for instance and model parameters
Doing analysis at TEMP = 27.000000 and TNOM = 27.000000

Warning: v1: no DC value, transient time 0 value used

Initial Transient Solution
--------------------------

Node                                   Voltage
----                                   -------
x1.net7                                    1.8
x1.net6                            1.16209e-06
net1                                       1.8
net2                                         0
out                                6.80528e-09
x1.vgp                                  1.6571
vctrl                                        0
x1.net8                               0.966293
x1.ng3                             3.93259e-09
x1.ng0                             3.93259e-09
x1.vco_switch_n_v2_0/selb          2.69671e-09
sel0                                       1.8
x1.ng1                             3.93259e-09
x1.vco_switch_n_v2_1/selb          2.69671e-09
sel1                                       1.8
x1.ng2                             3.93259e-09
x1.vco_switch_n_v2_2/selb          2.69671e-09
sel2                                       1.8
x1.vco_switch_n_v2_3/selb          2.69671e-09
sel3                                       1.8
x1.net3                               0.966293
x1.net5                                    1.8
x1.net2                                1.79523
x1.net4                              0.0839479
x1.pg3                                  1.6571
x1.pg0                                  1.6571
x1.vco_switch_p_0/selb             2.69671e-09
x1.pg1                                  1.6571
x1.pg2                                  1.6571
x1.vco_switch_p_2/selb             2.69671e-09
x1.vco_switch_p_1/selb             2.69671e-09
x1.vco_switch_p_3/selb             2.69671e-09
vdd                                        1.8
buf1_out                           2.60627e-09
net4                                4.9501e-09
net5                                4.9501e-09
net3                                4.9501e-09
buf16_out                           4.9501e-09
v1#branch                          1.44058e-11
vmeas_current_gnd#branch            1.2222e-05
vmeas_current_vdd#branch            1.2222e-05
v2#branch                         -1.22221e-05
vsel3#branch                                 0
vsel2#branch                                 0
vsel1#branch                                 0
vsel0#branch                                 0


No. of Data Rows : 7020

  Measurements for Transient Analysis

tvco_outside_while  =  2.417053e-10 targ=  1.411835e-08 trig=  1.387665e-08
fvco_outside_while  =  4.13727e+09
supply_current_rms_outside_while=   5.60052e-04 from=  1.00000e-08 to=  4.00000e-08
ground_current_rms_outside_while=   5.62218e-04 from=  1.00000e-08 to=  4.00000e-08
vctrl_avg_outside_while=  1.800000e+00 from=  1.000000e-08 to=  2.000500e-08
vhigh_outside_while =  1.893334e+00 at=  1.660500e-08
vlow_outside_while  =  -8.167676e-02 at=  1.820500e-08
peak_to_peak_outside_while=  1.97501e+00
supply_current_rms  =   5.51873e-04 from=  0.00000e+00 to=  7.00000e-08

binary raw file "3-stage_cs-vco_tb_WITH_APPENDWRITE.raw"
Doing analysis at TEMP = 27.000000 and TNOM = 27.000000

Warning: v1: no DC value, transient time 0 value used

  Measurements for Transient Analysis

tvco_outside_while  =  2.417053e-10 targ=  1.411835e-08 trig=  1.387665e-08
Original line no.: 0, new internal line no.: 12460:
insertnumber: fails.
  s = ".meas tran fvco_outside_while param=    4.137269400697080e+09   " u="  4.137269400697080e+09  " id=0
fvco_outside_while  =  4.13727e+09
supply_current_rms_outside_while=   5.60052e-04 from=  1.00000e-08 to=  4.00000e-08
ground_current_rms_outside_while=   5.62218e-04 from=  1.00000e-08 to=  4.00000e-08
vctrl_avg_outside_while=  1.800000e+00 from=  1.000000e-08 to=  2.000500e-08
vhigh_outside_while =  1.893334e+00 at=  1.660500e-08
vlow_outside_while  =  -8.167676e-02 at=  1.820500e-08
Original line no.: 0, new internal line no.: 12466:
insertnumber: fails.
  s = ".meas tran peak_to_peak_outside_while param=    1.975011101634743e+00   " u="  1.975011101634743e+00  " id=0
peak_to_peak_outside_while=  1.97501e+00
supply_current_rms  =   5.51873e-04 from=  0.00000e+00 to=  7.00000e-08


Total analysis time (seconds) = 11.2864

Total CPU time (seconds) = 204.384 

Total DRAM available = 7952.234 MB.
DRAM currently available =  127.242 MB.
Maximum ngspice program size =  684.824 MB.
Current ngspice program size =  666.176 MB.

Shared ngspice pages =    9.070 MB.
Text (code) pages =    7.879 MB.
Stack = 0 bytes.
Library pages =  657.340 MB.

