
Compatibility modes selected: hs a

Warning: m=xx on .subckt line will override multiplier m hierarchy!


Circuit: ** sch_path: /home/darunix/gitsandboxes/vco/vco/xschem/3-stage_cs-vco_tb.sch

option SCALE: Scale is set to 1e-06 for instance and model parameters
Reset re-loads circuit ** sch_path: /home/darunix/gitsandboxes/vco/vco/xschem/3-stage_cs-vco_tb.sch

Circuit: ** sch_path: /home/darunix/gitsandboxes/vco/vco/xschem/3-stage_cs-vco_tb.sch

option SCALE: Scale is set to 1e-06 for instance and model parameters
Reset re-loads circuit ** sch_path: /home/darunix/gitsandboxes/vco/vco/xschem/3-stage_cs-vco_tb.sch

Circuit: ** sch_path: /home/darunix/gitsandboxes/vco/vco/xschem/3-stage_cs-vco_tb.sch

option SCALE: Scale is set to 1e-06 for instance and model parameters
Doing analysis at TEMP = 27.000000 and TNOM = 27.000000

Warning: v1: no DC value, transient time 0 value used

Initial Transient Solution
--------------------------

Node                                   Voltage
----                                   -------
x1.net7                                    1.8
x1.net6                            1.16221e-06
net1                                       1.8
net2                                         0
out                                6.80528e-09
x1.vgp                                 1.67179
vctrl                                        0
x1.net8                               0.900366
x1.ng3                             9.63187e-09
x1.ng0                             3.93259e-09
x1.vco_switch_n_v2_0/selb          2.69671e-09
sel0                                       1.8
x1.ng1                             9.63187e-09
x1.vco_switch_n_v2_1/selb                  1.8
sel1                                         0
x1.ng2                             9.63187e-09
x1.vco_switch_n_v2_2/selb                  1.8
sel2                                         0
x1.vco_switch_n_v2_3/selb                  1.8
sel3                                         0
x1.net3                               0.900366
x1.net5                                1.79999
x1.net2                                1.78805
x1.net4                               0.374104
x1.pg3                                     1.8
x1.pg0                                 1.67179
x1.vco_switch_p_0/selb             2.69671e-09
x1.pg1                                     1.8
x1.pg2                                     1.8
x1.vco_switch_p_2/selb                     1.8
x1.vco_switch_p_1/selb                     1.8
x1.vco_switch_p_3/selb                     1.8
vdd                                        1.8
buf1_out                           2.60627e-09
net4                                4.9501e-09
net5                                4.9501e-09
net3                                4.9501e-09
buf16_out                           4.9501e-09
v1#branch                          1.68327e-11
vmeas_current_gnd#branch           1.43205e-05
vmeas_current_vdd#branch           1.43206e-05
v2#branch                         -1.43207e-05
vsel3#branch                                 0
vsel2#branch                                 0
vsel1#branch                                 0
vsel0#branch                                 0


No. of Data Rows : 7020

  Measurements for Transient Analysis


Error: measure  tvco_outside_while  (TRIG) : out of interval
 .meas tran tvco_outside_while trig v(out) val=0.5*1.8 rise=50 targ v(out) val=0.5*1.8 rise=51 failed!

Original line no.: 0, new internal line no.: 12460:
Undefined number [tvco_outside_while]
Original line no.: 0, new internal line no.: 12460:
Cannot compute substitute
fvco_outside_while  =   failed
supply_current_rms_outside_while=   2.05613e-05 from=  1.00000e-08 to=  4.00000e-08
ground_current_rms_outside_while=   1.62155e-05 from=  1.00000e-08 to=  4.00000e-08
vctrl_avg_outside_while=  0.000000e+00 from=  1.000000e-08 to=  2.000500e-08
vhigh_outside_while =  7.025800e-07 at=  1.001500e-08
vlow_outside_while  =  -4.252659e-07 at=  1.000500e-08
peak_to_peak_outside_while=  1.12785e-06
supply_current_rms  =   5.68618e-05 from=  0.00000e+00 to=  7.00000e-08

binary raw file "3-stage_cs-vco_tb_WITH_APPENDWRITE.raw"
Reset re-loads circuit ** sch_path: /home/darunix/gitsandboxes/vco/vco/xschem/3-stage_cs-vco_tb.sch

Circuit: ** sch_path: /home/darunix/gitsandboxes/vco/vco/xschem/3-stage_cs-vco_tb.sch

option SCALE: Scale is set to 1e-06 for instance and model parameters
Doing analysis at TEMP = 27.000000 and TNOM = 27.000000

Warning: v1: no DC value, transient time 0 value used

Initial Transient Solution
--------------------------

Node                                   Voltage
----                                   -------
x1.net7                                    1.8
x1.net6                            1.16221e-06
net1                                       1.8
net2                                         0
out                                6.80528e-09
x1.vgp                                 1.67179
vctrl                                        0
x1.net8                               0.900366
x1.ng3                             9.63187e-09
x1.ng0                             3.93259e-09
x1.vco_switch_n_v2_0/selb          2.69671e-09
sel0                                       1.8
x1.ng1                             9.63187e-09
x1.vco_switch_n_v2_1/selb                  1.8
sel1                                         0
x1.ng2                             9.63187e-09
x1.vco_switch_n_v2_2/selb                  1.8
sel2                                         0
x1.vco_switch_n_v2_3/selb                  1.8
sel3                                         0
x1.net3                               0.900366
x1.net5                                1.79999
x1.net2                                1.78805
x1.net4                               0.374104
x1.pg3                                     1.8
x1.pg0                                 1.67179
x1.vco_switch_p_0/selb             2.69671e-09
x1.pg1                                     1.8
x1.pg2                                     1.8
x1.vco_switch_p_2/selb                     1.8
x1.vco_switch_p_1/selb                     1.8
x1.vco_switch_p_3/selb                     1.8
vdd                                        1.8
buf1_out                           2.60627e-09
net4                                4.9501e-09
net5                                4.9501e-09
net3                                4.9501e-09
buf16_out                           4.9501e-09
v1#branch                          1.68327e-11
vmeas_current_gnd#branch           1.43205e-05
vmeas_current_vdd#branch           1.43206e-05
v2#branch                         -1.43207e-05
vsel3#branch                                 0
vsel2#branch                                 0
vsel1#branch                                 0
vsel0#branch                                 0


No. of Data Rows : 7020

  Measurements for Transient Analysis


Error: measure  tvco_outside_while  (TRIG) : out of interval
 .meas tran tvco_outside_while trig v(out) val=0.5*1.8 rise=50 targ v(out) val=0.5*1.8 rise=51 failed!

Original line no.: 0, new internal line no.: 12460:
Undefined number [tvco_outside_while]
Original line no.: 0, new internal line no.: 12460:
Cannot compute substitute
fvco_outside_while  =   failed
supply_current_rms_outside_while=   6.28402e-05 from=  1.00000e-08 to=  4.00000e-08
ground_current_rms_outside_while=   3.71940e-05 from=  1.00000e-08 to=  4.00000e-08
vctrl_avg_outside_while=  1.000000e-01 from=  1.000000e-08 to=  2.000500e-08
vhigh_outside_while =  8.841604e-06 at=  1.001500e-08
vlow_outside_while  =  -8.843895e-06 at=  1.000500e-08
peak_to_peak_outside_while=  1.76855e-05
supply_current_rms  =   7.97736e-05 from=  0.00000e+00 to=  7.00000e-08

binary raw file "3-stage_cs-vco_tb_WITH_APPENDWRITE.raw"
Reset re-loads circuit ** sch_path: /home/darunix/gitsandboxes/vco/vco/xschem/3-stage_cs-vco_tb.sch

Circuit: ** sch_path: /home/darunix/gitsandboxes/vco/vco/xschem/3-stage_cs-vco_tb.sch

option SCALE: Scale is set to 1e-06 for instance and model parameters
Doing analysis at TEMP = 27.000000 and TNOM = 27.000000

Warning: v1: no DC value, transient time 0 value used

Initial Transient Solution
--------------------------

Node                                   Voltage
----                                   -------
x1.net7                                    1.8
x1.net6                            1.16221e-06
net1                                       1.8
net2                                         0
out                                6.80528e-09
x1.vgp                                 1.67179
vctrl                                        0
x1.net8                               0.900366
x1.ng3                             9.63187e-09
x1.ng0                             3.93259e-09
x1.vco_switch_n_v2_0/selb          2.69671e-09
sel0                                       1.8
x1.ng1                             9.63187e-09
x1.vco_switch_n_v2_1/selb                  1.8
sel1                                         0
x1.ng2                             9.63187e-09
x1.vco_switch_n_v2_2/selb                  1.8
sel2                                         0
x1.vco_switch_n_v2_3/selb                  1.8
sel3                                         0
x1.net3                               0.900366
x1.net5                                1.79999
x1.net2                                1.78805
x1.net4                               0.374104
x1.pg3                                     1.8
x1.pg0                                 1.67179
x1.vco_switch_p_0/selb             2.69671e-09
x1.pg1                                     1.8
x1.pg2                                     1.8
x1.vco_switch_p_2/selb                     1.8
x1.vco_switch_p_1/selb                     1.8
x1.vco_switch_p_3/selb                     1.8
vdd                                        1.8
buf1_out                           2.60627e-09
net4                                4.9501e-09
net5                                4.9501e-09
net3                                4.9501e-09
buf16_out                           4.9501e-09
v1#branch                          1.68327e-11
vmeas_current_gnd#branch           1.43205e-05
vmeas_current_vdd#branch           1.43206e-05
v2#branch                         -1.43207e-05
vsel3#branch                                 0
vsel2#branch                                 0
vsel1#branch                                 0
vsel0#branch                                 0


No. of Data Rows : 7020

  Measurements for Transient Analysis


Error: measure  tvco_outside_while  (TRIG) : out of interval
 .meas tran tvco_outside_while trig v(out) val=0.5*1.8 rise=50 targ v(out) val=0.5*1.8 rise=51 failed!

Original line no.: 0, new internal line no.: 12460:
Undefined number [tvco_outside_while]
Original line no.: 0, new internal line no.: 12460:
Cannot compute substitute
fvco_outside_while  =   failed
supply_current_rms_outside_while=   5.53439e-05 from=  1.00000e-08 to=  4.00000e-08
ground_current_rms_outside_while=   8.14628e-05 from=  1.00000e-08 to=  4.00000e-08
vctrl_avg_outside_while=  2.000000e-01 from=  1.000000e-08 to=  2.000500e-08
vhigh_outside_while =  8.629707e-06 at=  1.000500e-08
vlow_outside_while  =  -8.597268e-06 at=  1.001500e-08
peak_to_peak_outside_while=  1.72270e-05
supply_current_rms  =   7.57548e-05 from=  0.00000e+00 to=  7.00000e-08

binary raw file "3-stage_cs-vco_tb_WITH_APPENDWRITE.raw"
Reset re-loads circuit ** sch_path: /home/darunix/gitsandboxes/vco/vco/xschem/3-stage_cs-vco_tb.sch

Circuit: ** sch_path: /home/darunix/gitsandboxes/vco/vco/xschem/3-stage_cs-vco_tb.sch

option SCALE: Scale is set to 1e-06 for instance and model parameters
Doing analysis at TEMP = 27.000000 and TNOM = 27.000000

Warning: v1: no DC value, transient time 0 value used

Initial Transient Solution
--------------------------

Node                                   Voltage
----                                   -------
x1.net7                                    1.8
x1.net6                            1.16221e-06
net1                                       1.8
net2                                         0
out                                6.80528e-09
x1.vgp                                 1.67179
vctrl                                        0
x1.net8                               0.900366
x1.ng3                             9.63187e-09
x1.ng0                             3.93259e-09
x1.vco_switch_n_v2_0/selb          2.69671e-09
sel0                                       1.8
x1.ng1                             9.63187e-09
x1.vco_switch_n_v2_1/selb                  1.8
sel1                                         0
x1.ng2                             9.63187e-09
x1.vco_switch_n_v2_2/selb                  1.8
sel2                                         0
x1.vco_switch_n_v2_3/selb                  1.8
sel3                                         0
x1.net3                               0.900366
x1.net5                                1.79999
x1.net2                                1.78805
x1.net4                               0.374104
x1.pg3                                     1.8
x1.pg0                                 1.67179
x1.vco_switch_p_0/selb             2.69671e-09
x1.pg1                                     1.8
x1.pg2                                     1.8
x1.vco_switch_p_2/selb                     1.8
x1.vco_switch_p_1/selb                     1.8
x1.vco_switch_p_3/selb                     1.8
vdd                                        1.8
buf1_out                           2.60627e-09
net4                                4.9501e-09
net5                                4.9501e-09
net3                                4.9501e-09
buf16_out                           4.9501e-09
v1#branch                          1.68327e-11
vmeas_current_gnd#branch           1.43205e-05
vmeas_current_vdd#branch           1.43206e-05
v2#branch                         -1.43207e-05
vsel3#branch                                 0
vsel2#branch                                 0
vsel1#branch                                 0
vsel0#branch                                 0


No. of Data Rows : 7020

  Measurements for Transient Analysis


Error: measure  tvco_outside_while  (TRIG) : out of interval
 .meas tran tvco_outside_while trig v(out) val=0.5*1.8 rise=50 targ v(out) val=0.5*1.8 rise=51 failed!

Original line no.: 0, new internal line no.: 12460:
Undefined number [tvco_outside_while]
Original line no.: 0, new internal line no.: 12460:
Cannot compute substitute
fvco_outside_while  =   failed
supply_current_rms_outside_while=   7.51943e-05 from=  1.00000e-08 to=  4.00000e-08
ground_current_rms_outside_while=   3.38729e-05 from=  1.00000e-08 to=  4.00000e-08
vctrl_avg_outside_while=  3.000000e-01 from=  1.000000e-08 to=  2.000500e-08
vhigh_outside_while =  2.396429e-06 at=  1.001500e-08
vlow_outside_while  =  -2.396714e-06 at=  1.000500e-08
peak_to_peak_outside_while=  4.79314e-06
supply_current_rms  =   8.85055e-05 from=  0.00000e+00 to=  7.00000e-08

binary raw file "3-stage_cs-vco_tb_WITH_APPENDWRITE.raw"
Reset re-loads circuit ** sch_path: /home/darunix/gitsandboxes/vco/vco/xschem/3-stage_cs-vco_tb.sch

Circuit: ** sch_path: /home/darunix/gitsandboxes/vco/vco/xschem/3-stage_cs-vco_tb.sch

option SCALE: Scale is set to 1e-06 for instance and model parameters
Doing analysis at TEMP = 27.000000 and TNOM = 27.000000

Warning: v1: no DC value, transient time 0 value used

Initial Transient Solution
--------------------------

Node                                   Voltage
----                                   -------
x1.net7                                    1.8
x1.net6                            1.16221e-06
net1                                       1.8
net2                                         0
out                                6.80528e-09
x1.vgp                                 1.67179
vctrl                                        0
x1.net8                               0.900366
x1.ng3                             9.63187e-09
x1.ng0                             3.93259e-09
x1.vco_switch_n_v2_0/selb          2.69671e-09
sel0                                       1.8
x1.ng1                             9.63187e-09
x1.vco_switch_n_v2_1/selb                  1.8
sel1                                         0
x1.ng2                             9.63187e-09
x1.vco_switch_n_v2_2/selb                  1.8
sel2                                         0
x1.vco_switch_n_v2_3/selb                  1.8
sel3                                         0
x1.net3                               0.900366
x1.net5                                1.79999
x1.net2                                1.78805
x1.net4                               0.374104
x1.pg3                                     1.8
x1.pg0                                 1.67179
x1.vco_switch_p_0/selb             2.69671e-09
x1.pg1                                     1.8
x1.pg2                                     1.8
x1.vco_switch_p_2/selb                     1.8
x1.vco_switch_p_1/selb                     1.8
x1.vco_switch_p_3/selb                     1.8
vdd                                        1.8
buf1_out                           2.60627e-09
net4                                4.9501e-09
net5                                4.9501e-09
net3                                4.9501e-09
buf16_out                           4.9501e-09
v1#branch                          1.68327e-11
vmeas_current_gnd#branch           1.43205e-05
vmeas_current_vdd#branch           1.43206e-05
v2#branch                         -1.43207e-05
vsel3#branch                                 0
vsel2#branch                                 0
vsel1#branch                                 0
vsel0#branch                                 0


No. of Data Rows : 7020

  Measurements for Transient Analysis


Error: measure  tvco_outside_while  (TRIG) : out of interval
 .meas tran tvco_outside_while trig v(out) val=0.5*1.8 rise=50 targ v(out) val=0.5*1.8 rise=51 failed!

Original line no.: 0, new internal line no.: 12460:
Undefined number [tvco_outside_while]
Original line no.: 0, new internal line no.: 12460:
Cannot compute substitute
fvco_outside_while  =   failed
supply_current_rms_outside_while=   2.98329e-05 from=  1.00000e-08 to=  4.00000e-08
ground_current_rms_outside_while=   3.10136e-05 from=  1.00000e-08 to=  4.00000e-08
vctrl_avg_outside_while=  4.000000e-01 from=  1.000000e-08 to=  2.000500e-08
vhigh_outside_while =  2.434116e-06 at=  1.001500e-08
vlow_outside_while  =  -2.017900e-06 at=  1.000500e-08
peak_to_peak_outside_while=  4.45202e-06
supply_current_rms  =   6.06247e-05 from=  0.00000e+00 to=  7.00000e-08

binary raw file "3-stage_cs-vco_tb_WITH_APPENDWRITE.raw"
Reset re-loads circuit ** sch_path: /home/darunix/gitsandboxes/vco/vco/xschem/3-stage_cs-vco_tb.sch

Circuit: ** sch_path: /home/darunix/gitsandboxes/vco/vco/xschem/3-stage_cs-vco_tb.sch

option SCALE: Scale is set to 1e-06 for instance and model parameters
Doing analysis at TEMP = 27.000000 and TNOM = 27.000000

Warning: v1: no DC value, transient time 0 value used

Initial Transient Solution
--------------------------

Node                                   Voltage
----                                   -------
x1.net7                                    1.8
x1.net6                            1.16221e-06
net1                                       1.8
net2                                         0
out                                6.80528e-09
x1.vgp                                 1.67179
vctrl                                        0
x1.net8                               0.900366
x1.ng3                             9.63187e-09
x1.ng0                             3.93259e-09
x1.vco_switch_n_v2_0/selb          2.69671e-09
sel0                                       1.8
x1.ng1                             9.63187e-09
x1.vco_switch_n_v2_1/selb                  1.8
sel1                                         0
x1.ng2                             9.63187e-09
x1.vco_switch_n_v2_2/selb                  1.8
sel2                                         0
x1.vco_switch_n_v2_3/selb                  1.8
sel3                                         0
x1.net3                               0.900366
x1.net5                                1.79999
x1.net2                                1.78805
x1.net4                               0.374104
x1.pg3                                     1.8
x1.pg0                                 1.67179
x1.vco_switch_p_0/selb             2.69671e-09
x1.pg1                                     1.8
x1.pg2                                     1.8
x1.vco_switch_p_2/selb                     1.8
x1.vco_switch_p_1/selb                     1.8
x1.vco_switch_p_3/selb                     1.8
vdd                                        1.8
buf1_out                           2.60627e-09
net4                                4.9501e-09
net5                                4.9501e-09
net3                                4.9501e-09
buf16_out                           4.9501e-09
v1#branch                          1.68327e-11
vmeas_current_gnd#branch           1.43205e-05
vmeas_current_vdd#branch           1.43206e-05
v2#branch                         -1.43207e-05
vsel3#branch                                 0
vsel2#branch                                 0
vsel1#branch                                 0
vsel0#branch                                 0


No. of Data Rows : 7020

  Measurements for Transient Analysis


Error: measure  tvco_outside_while  (TRIG) : out of interval
 .meas tran tvco_outside_while trig v(out) val=0.5*1.8 rise=50 targ v(out) val=0.5*1.8 rise=51 failed!

Original line no.: 0, new internal line no.: 12460:
Undefined number [tvco_outside_while]
Original line no.: 0, new internal line no.: 12460:
Cannot compute substitute
fvco_outside_while  =   failed
supply_current_rms_outside_while=   4.08605e-05 from=  1.00000e-08 to=  4.00000e-08
ground_current_rms_outside_while=   3.53544e-05 from=  1.00000e-08 to=  4.00000e-08
vctrl_avg_outside_while=  5.000000e-01 from=  1.000000e-08 to=  2.000500e-08
vhigh_outside_while =  9.649351e-06 at=  1.000500e-08
vlow_outside_while  =  -9.626865e-06 at=  1.001500e-08
peak_to_peak_outside_while=  1.92762e-05
supply_current_rms  =   6.46940e-05 from=  0.00000e+00 to=  7.00000e-08

binary raw file "3-stage_cs-vco_tb_WITH_APPENDWRITE.raw"
Reset re-loads circuit ** sch_path: /home/darunix/gitsandboxes/vco/vco/xschem/3-stage_cs-vco_tb.sch

Circuit: ** sch_path: /home/darunix/gitsandboxes/vco/vco/xschem/3-stage_cs-vco_tb.sch

option SCALE: Scale is set to 1e-06 for instance and model parameters
Doing analysis at TEMP = 27.000000 and TNOM = 27.000000

Warning: v1: no DC value, transient time 0 value used

Initial Transient Solution
--------------------------

Node                                   Voltage
----                                   -------
x1.net7                                    1.8
x1.net6                            1.16221e-06
net1                                       1.8
net2                                         0
out                                6.80528e-09
x1.vgp                                 1.67179
vctrl                                        0
x1.net8                               0.900366
x1.ng3                             9.63187e-09
x1.ng0                             3.93259e-09
x1.vco_switch_n_v2_0/selb          2.69671e-09
sel0                                       1.8
x1.ng1                             9.63187e-09
x1.vco_switch_n_v2_1/selb                  1.8
sel1                                         0
x1.ng2                             9.63187e-09
x1.vco_switch_n_v2_2/selb                  1.8
sel2                                         0
x1.vco_switch_n_v2_3/selb                  1.8
sel3                                         0
x1.net3                               0.900366
x1.net5                                1.79999
x1.net2                                1.78805
x1.net4                               0.374104
x1.pg3                                     1.8
x1.pg0                                 1.67179
x1.vco_switch_p_0/selb             2.69671e-09
x1.pg1                                     1.8
x1.pg2                                     1.8
x1.vco_switch_p_2/selb                     1.8
x1.vco_switch_p_1/selb                     1.8
x1.vco_switch_p_3/selb                     1.8
vdd                                        1.8
buf1_out                           2.60627e-09
net4                                4.9501e-09
net5                                4.9501e-09
net3                                4.9501e-09
buf16_out                           4.9501e-09
v1#branch                          1.68327e-11
vmeas_current_gnd#branch           1.43205e-05
vmeas_current_vdd#branch           1.43206e-05
v2#branch                         -1.43207e-05
vsel3#branch                                 0
vsel2#branch                                 0
vsel1#branch                                 0
vsel0#branch                                 0


No. of Data Rows : 7020

  Measurements for Transient Analysis


Error: measure  tvco_outside_while  (TRIG) : out of interval
 .meas tran tvco_outside_while trig v(out) val=0.5*1.8 rise=50 targ v(out) val=0.5*1.8 rise=51 failed!

Original line no.: 0, new internal line no.: 12460:
Undefined number [tvco_outside_while]
Original line no.: 0, new internal line no.: 12460:
Cannot compute substitute
fvco_outside_while  =   failed
supply_current_rms_outside_while=   9.29646e-05 from=  1.00000e-08 to=  4.00000e-08
ground_current_rms_outside_while=   9.60723e-05 from=  1.00000e-08 to=  4.00000e-08
vctrl_avg_outside_while=  6.000000e-01 from=  1.000000e-08 to=  2.000500e-08
vhigh_outside_while =  1.927910e+00 at=  1.348500e-08
vlow_outside_while  =  -8.329762e-02 at=  1.321500e-08
peak_to_peak_outside_while=  2.01121e+00
supply_current_rms  =   1.03902e-04 from=  0.00000e+00 to=  7.00000e-08

binary raw file "3-stage_cs-vco_tb_WITH_APPENDWRITE.raw"
Reset re-loads circuit ** sch_path: /home/darunix/gitsandboxes/vco/vco/xschem/3-stage_cs-vco_tb.sch

Circuit: ** sch_path: /home/darunix/gitsandboxes/vco/vco/xschem/3-stage_cs-vco_tb.sch

option SCALE: Scale is set to 1e-06 for instance and model parameters
Doing analysis at TEMP = 27.000000 and TNOM = 27.000000

Warning: v1: no DC value, transient time 0 value used

Initial Transient Solution
--------------------------

Node                                   Voltage
----                                   -------
x1.net7                                    1.8
x1.net6                            1.16221e-06
net1                                       1.8
net2                                         0
out                                6.80528e-09
x1.vgp                                 1.67179
vctrl                                        0
x1.net8                               0.900366
x1.ng3                             9.63187e-09
x1.ng0                             3.93259e-09
x1.vco_switch_n_v2_0/selb          2.69671e-09
sel0                                       1.8
x1.ng1                             9.63187e-09
x1.vco_switch_n_v2_1/selb                  1.8
sel1                                         0
x1.ng2                             9.63187e-09
x1.vco_switch_n_v2_2/selb                  1.8
sel2                                         0
x1.vco_switch_n_v2_3/selb                  1.8
sel3                                         0
x1.net3                               0.900366
x1.net5                                1.79999
x1.net2                                1.78805
x1.net4                               0.374104
x1.pg3                                     1.8
x1.pg0                                 1.67179
x1.vco_switch_p_0/selb             2.69671e-09
x1.pg1                                     1.8
x1.pg2                                     1.8
x1.vco_switch_p_2/selb                     1.8
x1.vco_switch_p_1/selb                     1.8
x1.vco_switch_p_3/selb                     1.8
vdd                                        1.8
buf1_out                           2.60627e-09
net4                                4.9501e-09
net5                                4.9501e-09
net3                                4.9501e-09
buf16_out                           4.9501e-09
v1#branch                          1.68327e-11
vmeas_current_gnd#branch           1.43205e-05
vmeas_current_vdd#branch           1.43206e-05
v2#branch                         -1.43207e-05
vsel3#branch                                 0
vsel2#branch                                 0
vsel1#branch                                 0
vsel0#branch                                 0


No. of Data Rows : 7020

  Measurements for Transient Analysis

tvco_outside_while  =  8.200376e-10 targ=  4.025589e-08 trig=  3.943586e-08
fvco_outside_while  =  1.21946e+09
supply_current_rms_outside_while=   1.84693e-04 from=  1.00000e-08 to=  4.00000e-08
ground_current_rms_outside_while=   1.90656e-04 from=  1.00000e-08 to=  4.00000e-08
vctrl_avg_outside_while=  7.000000e-01 from=  1.000000e-08 to=  2.000500e-08
vhigh_outside_while =  1.927920e+00 at=  1.531500e-08
vlow_outside_while  =  -8.363308e-02 at=  1.984500e-08
peak_to_peak_outside_while=  2.01155e+00
supply_current_rms  =   2.31236e-04 from=  0.00000e+00 to=  7.00000e-08

binary raw file "3-stage_cs-vco_tb_WITH_APPENDWRITE.raw"
Reset re-loads circuit ** sch_path: /home/darunix/gitsandboxes/vco/vco/xschem/3-stage_cs-vco_tb.sch

Circuit: ** sch_path: /home/darunix/gitsandboxes/vco/vco/xschem/3-stage_cs-vco_tb.sch

option SCALE: Scale is set to 1e-06 for instance and model parameters
Doing analysis at TEMP = 27.000000 and TNOM = 27.000000

Warning: v1: no DC value, transient time 0 value used

Initial Transient Solution
--------------------------

Node                                   Voltage
----                                   -------
x1.net7                                    1.8
x1.net6                            1.16221e-06
net1                                       1.8
net2                                         0
out                                6.80528e-09
x1.vgp                                 1.67179
vctrl                                        0
x1.net8                               0.900366
x1.ng3                             9.63187e-09
x1.ng0                             3.93259e-09
x1.vco_switch_n_v2_0/selb          2.69671e-09
sel0                                       1.8
x1.ng1                             9.63187e-09
x1.vco_switch_n_v2_1/selb                  1.8
sel1                                         0
x1.ng2                             9.63187e-09
x1.vco_switch_n_v2_2/selb                  1.8
sel2                                         0
x1.vco_switch_n_v2_3/selb                  1.8
sel3                                         0
x1.net3                               0.900366
x1.net5                                1.79999
x1.net2                                1.78805
x1.net4                               0.374104
x1.pg3                                     1.8
x1.pg0                                 1.67179
x1.vco_switch_p_0/selb             2.69671e-09
x1.pg1                                     1.8
x1.pg2                                     1.8
x1.vco_switch_p_2/selb                     1.8
x1.vco_switch_p_1/selb                     1.8
x1.vco_switch_p_3/selb                     1.8
vdd                                        1.8
buf1_out                           2.60627e-09
net4                                4.9501e-09
net5                                4.9501e-09
net3                                4.9501e-09
buf16_out                           4.9501e-09
v1#branch                          1.68327e-11
vmeas_current_gnd#branch           1.43205e-05
vmeas_current_vdd#branch           1.43206e-05
v2#branch                         -1.43207e-05
vsel3#branch                                 0
vsel2#branch                                 0
vsel1#branch                                 0
vsel0#branch                                 0


No. of Data Rows : 7020

  Measurements for Transient Analysis

tvco_outside_while  =  4.144382e-10 targ=  2.247902e-08 trig=  2.206458e-08
fvco_outside_while  =  2.41291e+09
supply_current_rms_outside_while=   2.85780e-04 from=  1.00000e-08 to=  4.00000e-08
ground_current_rms_outside_while=   2.78834e-04 from=  1.00000e-08 to=  4.00000e-08
vctrl_avg_outside_while=  8.000000e-01 from=  1.000000e-08 to=  2.000500e-08
vhigh_outside_while =  1.928235e+00 at=  1.144500e-08
vlow_outside_while  =  -8.431197e-02 at=  1.457500e-08
peak_to_peak_outside_while=  2.01255e+00
supply_current_rms  =   2.82423e-04 from=  0.00000e+00 to=  7.00000e-08

binary raw file "3-stage_cs-vco_tb_WITH_APPENDWRITE.raw"
Reset re-loads circuit ** sch_path: /home/darunix/gitsandboxes/vco/vco/xschem/3-stage_cs-vco_tb.sch

Circuit: ** sch_path: /home/darunix/gitsandboxes/vco/vco/xschem/3-stage_cs-vco_tb.sch

option SCALE: Scale is set to 1e-06 for instance and model parameters
Doing analysis at TEMP = 27.000000 and TNOM = 27.000000

Warning: v1: no DC value, transient time 0 value used

Initial Transient Solution
--------------------------

Node                                   Voltage
----                                   -------
x1.net7                                    1.8
x1.net6                            1.16221e-06
net1                                       1.8
net2                                         0
out                                6.80528e-09
x1.vgp                                 1.67179
vctrl                                        0
x1.net8                               0.900366
x1.ng3                             9.63187e-09
x1.ng0                             3.93259e-09
x1.vco_switch_n_v2_0/selb          2.69671e-09
sel0                                       1.8
x1.ng1                             9.63187e-09
x1.vco_switch_n_v2_1/selb                  1.8
sel1                                         0
x1.ng2                             9.63187e-09
x1.vco_switch_n_v2_2/selb                  1.8
sel2                                         0
x1.vco_switch_n_v2_3/selb                  1.8
sel3                                         0
x1.net3                               0.900366
x1.net5                                1.79999
x1.net2                                1.78805
x1.net4                               0.374104
x1.pg3                                     1.8
x1.pg0                                 1.67179
x1.vco_switch_p_0/selb             2.69671e-09
x1.pg1                                     1.8
x1.pg2                                     1.8
x1.vco_switch_p_2/selb                     1.8
x1.vco_switch_p_1/selb                     1.8
x1.vco_switch_p_3/selb                     1.8
vdd                                        1.8
buf1_out                           2.60627e-09
net4                                4.9501e-09
net5                                4.9501e-09
net3                                4.9501e-09
buf16_out                           4.9501e-09
v1#branch                          1.68327e-11
vmeas_current_gnd#branch           1.43205e-05
vmeas_current_vdd#branch           1.43206e-05
v2#branch                         -1.43207e-05
vsel3#branch                                 0
vsel2#branch                                 0
vsel1#branch                                 0
vsel0#branch                                 0


No. of Data Rows : 7020

  Measurements for Transient Analysis

tvco_outside_while  =  3.117599e-10 targ=  1.746479e-08 trig=  1.715303e-08
fvco_outside_while  =  3.20760e+09
supply_current_rms_outside_while=   3.86477e-04 from=  1.00000e-08 to=  4.00000e-08
ground_current_rms_outside_while=   3.85405e-04 from=  1.00000e-08 to=  4.00000e-08
vctrl_avg_outside_while=  9.000000e-01 from=  1.000000e-08 to=  2.000500e-08
vhigh_outside_while =  1.928057e+00 at=  1.603500e-08
vlow_outside_while  =  -8.287037e-02 at=  1.432500e-08
peak_to_peak_outside_while=  2.01093e+00
supply_current_rms  =   3.81097e-04 from=  0.00000e+00 to=  7.00000e-08

binary raw file "3-stage_cs-vco_tb_WITH_APPENDWRITE.raw"
Reset re-loads circuit ** sch_path: /home/darunix/gitsandboxes/vco/vco/xschem/3-stage_cs-vco_tb.sch

Circuit: ** sch_path: /home/darunix/gitsandboxes/vco/vco/xschem/3-stage_cs-vco_tb.sch

option SCALE: Scale is set to 1e-06 for instance and model parameters
Doing analysis at TEMP = 27.000000 and TNOM = 27.000000

Warning: v1: no DC value, transient time 0 value used

Initial Transient Solution
--------------------------

Node                                   Voltage
----                                   -------
x1.net7                                    1.8
x1.net6                            1.16221e-06
net1                                       1.8
net2                                         0
out                                6.80528e-09
x1.vgp                                 1.67179
vctrl                                        0
x1.net8                               0.900366
x1.ng3                             9.63187e-09
x1.ng0                             3.93259e-09
x1.vco_switch_n_v2_0/selb          2.69671e-09
sel0                                       1.8
x1.ng1                             9.63187e-09
x1.vco_switch_n_v2_1/selb                  1.8
sel1                                         0
x1.ng2                             9.63187e-09
x1.vco_switch_n_v2_2/selb                  1.8
sel2                                         0
x1.vco_switch_n_v2_3/selb                  1.8
sel3                                         0
x1.net3                               0.900366
x1.net5                                1.79999
x1.net2                                1.78805
x1.net4                               0.374104
x1.pg3                                     1.8
x1.pg0                                 1.67179
x1.vco_switch_p_0/selb             2.69671e-09
x1.pg1                                     1.8
x1.pg2                                     1.8
x1.vco_switch_p_2/selb                     1.8
x1.vco_switch_p_1/selb                     1.8
x1.vco_switch_p_3/selb                     1.8
vdd                                        1.8
buf1_out                           2.60627e-09
net4                                4.9501e-09
net5                                4.9501e-09
net3                                4.9501e-09
buf16_out                           4.9501e-09
v1#branch                          1.68327e-11
vmeas_current_gnd#branch           1.43205e-05
vmeas_current_vdd#branch           1.43206e-05
v2#branch                         -1.43207e-05
vsel3#branch                                 0
vsel2#branch                                 0
vsel1#branch                                 0
vsel0#branch                                 0


No. of Data Rows : 7020

  Measurements for Transient Analysis

tvco_outside_while  =  2.938028e-10 targ=  1.656001e-08 trig=  1.626621e-08
fvco_outside_while  =  3.40364e+09
supply_current_rms_outside_while=   4.35021e-04 from=  1.00000e-08 to=  4.00000e-08
ground_current_rms_outside_while=   4.33586e-04 from=  1.00000e-08 to=  4.00000e-08
vctrl_avg_outside_while=  1.000000e+00 from=  1.000000e-08 to=  2.000500e-08
vhigh_outside_while =  1.927215e+00 at=  1.079500e-08
vlow_outside_while  =  -8.202671e-02 at=  1.506500e-08
peak_to_peak_outside_while=  2.00924e+00
supply_current_rms  =   4.28720e-04 from=  0.00000e+00 to=  7.00000e-08

binary raw file "3-stage_cs-vco_tb_WITH_APPENDWRITE.raw"
Reset re-loads circuit ** sch_path: /home/darunix/gitsandboxes/vco/vco/xschem/3-stage_cs-vco_tb.sch

Circuit: ** sch_path: /home/darunix/gitsandboxes/vco/vco/xschem/3-stage_cs-vco_tb.sch

option SCALE: Scale is set to 1e-06 for instance and model parameters
Doing analysis at TEMP = 27.000000 and TNOM = 27.000000

Warning: v1: no DC value, transient time 0 value used

Initial Transient Solution
--------------------------

Node                                   Voltage
----                                   -------
x1.net7                                    1.8
x1.net6                            1.16221e-06
net1                                       1.8
net2                                         0
out                                6.80528e-09
x1.vgp                                 1.67179
vctrl                                        0
x1.net8                               0.900366
x1.ng3                             9.63187e-09
x1.ng0                             3.93259e-09
x1.vco_switch_n_v2_0/selb          2.69671e-09
sel0                                       1.8
x1.ng1                             9.63187e-09
x1.vco_switch_n_v2_1/selb                  1.8
sel1                                         0
x1.ng2                             9.63187e-09
x1.vco_switch_n_v2_2/selb                  1.8
sel2                                         0
x1.vco_switch_n_v2_3/selb                  1.8
sel3                                         0
x1.net3                               0.900366
x1.net5                                1.79999
x1.net2                                1.78805
x1.net4                               0.374104
x1.pg3                                     1.8
x1.pg0                                 1.67179
x1.vco_switch_p_0/selb             2.69671e-09
x1.pg1                                     1.8
x1.pg2                                     1.8
x1.vco_switch_p_2/selb                     1.8
x1.vco_switch_p_1/selb                     1.8
x1.vco_switch_p_3/selb                     1.8
vdd                                        1.8
buf1_out                           2.60627e-09
net4                                4.9501e-09
net5                                4.9501e-09
net3                                4.9501e-09
buf16_out                           4.9501e-09
v1#branch                          1.68327e-11
vmeas_current_gnd#branch           1.43205e-05
vmeas_current_vdd#branch           1.43206e-05
v2#branch                         -1.43207e-05
vsel3#branch                                 0
vsel2#branch                                 0
vsel1#branch                                 0
vsel0#branch                                 0


No. of Data Rows : 7020

  Measurements for Transient Analysis

tvco_outside_while  =  2.850914e-10 targ=  1.606494e-08 trig=  1.577985e-08
fvco_outside_while  =  3.50765e+09
supply_current_rms_outside_while=   4.74465e-04 from=  1.00000e-08 to=  4.00000e-08
ground_current_rms_outside_while=   4.71483e-04 from=  1.00000e-08 to=  4.00000e-08
vctrl_avg_outside_while=  1.100000e+00 from=  1.000000e-08 to=  2.000500e-08
vhigh_outside_while =  1.926757e+00 at=  1.418500e-08
vlow_outside_while  =  -8.110428e-02 at=  1.575500e-08
peak_to_peak_outside_while=  2.00786e+00
supply_current_rms  =   4.67260e-04 from=  0.00000e+00 to=  7.00000e-08

binary raw file "3-stage_cs-vco_tb_WITH_APPENDWRITE.raw"
Reset re-loads circuit ** sch_path: /home/darunix/gitsandboxes/vco/vco/xschem/3-stage_cs-vco_tb.sch

Circuit: ** sch_path: /home/darunix/gitsandboxes/vco/vco/xschem/3-stage_cs-vco_tb.sch

option SCALE: Scale is set to 1e-06 for instance and model parameters
Doing analysis at TEMP = 27.000000 and TNOM = 27.000000

Warning: v1: no DC value, transient time 0 value used

Initial Transient Solution
--------------------------

Node                                   Voltage
----                                   -------
x1.net7                                    1.8
x1.net6                            1.16221e-06
net1                                       1.8
net2                                         0
out                                6.80528e-09
x1.vgp                                 1.67179
vctrl                                        0
x1.net8                               0.900366
x1.ng3                             9.63187e-09
x1.ng0                             3.93259e-09
x1.vco_switch_n_v2_0/selb          2.69671e-09
sel0                                       1.8
x1.ng1                             9.63187e-09
x1.vco_switch_n_v2_1/selb                  1.8
sel1                                         0
x1.ng2                             9.63187e-09
x1.vco_switch_n_v2_2/selb                  1.8
sel2                                         0
x1.vco_switch_n_v2_3/selb                  1.8
sel3                                         0
x1.net3                               0.900366
x1.net5                                1.79999
x1.net2                                1.78805
x1.net4                               0.374104
x1.pg3                                     1.8
x1.pg0                                 1.67179
x1.vco_switch_p_0/selb             2.69671e-09
x1.pg1                                     1.8
x1.pg2                                     1.8
x1.vco_switch_p_2/selb                     1.8
x1.vco_switch_p_1/selb                     1.8
x1.vco_switch_p_3/selb                     1.8
vdd                                        1.8
buf1_out                           2.60627e-09
net4                                4.9501e-09
net5                                4.9501e-09
net3                                4.9501e-09
buf16_out                           4.9501e-09
v1#branch                          1.68327e-11
vmeas_current_gnd#branch           1.43205e-05
vmeas_current_vdd#branch           1.43206e-05
v2#branch                         -1.43207e-05
vsel3#branch                                 0
vsel2#branch                                 0
vsel1#branch                                 0
vsel0#branch                                 0


No. of Data Rows : 7020

  Measurements for Transient Analysis

tvco_outside_while  =  2.790268e-10 targ=  1.577026e-08 trig=  1.549123e-08
fvco_outside_while  =  3.58389e+09
supply_current_rms_outside_while=   5.22855e-04 from=  1.00000e-08 to=  4.00000e-08
ground_current_rms_outside_while=   5.00152e-04 from=  1.00000e-08 to=  4.00000e-08
vctrl_avg_outside_while=  1.200000e+00 from=  1.000000e-08 to=  2.000500e-08
vhigh_outside_while =  1.926569e+00 at=  1.476500e-08
vlow_outside_while  =  -8.041709e-02 at=  1.881500e-08
peak_to_peak_outside_while=  2.00699e+00
supply_current_rms  =   5.13770e-04 from=  0.00000e+00 to=  7.00000e-08

binary raw file "3-stage_cs-vco_tb_WITH_APPENDWRITE.raw"
Reset re-loads circuit ** sch_path: /home/darunix/gitsandboxes/vco/vco/xschem/3-stage_cs-vco_tb.sch

Circuit: ** sch_path: /home/darunix/gitsandboxes/vco/vco/xschem/3-stage_cs-vco_tb.sch

option SCALE: Scale is set to 1e-06 for instance and model parameters
Doing analysis at TEMP = 27.000000 and TNOM = 27.000000

Warning: v1: no DC value, transient time 0 value used

Initial Transient Solution
--------------------------

Node                                   Voltage
----                                   -------
x1.net7                                    1.8
x1.net6                            1.16221e-06
net1                                       1.8
net2                                         0
out                                6.80528e-09
x1.vgp                                 1.67179
vctrl                                        0
x1.net8                               0.900366
x1.ng3                             9.63187e-09
x1.ng0                             3.93259e-09
x1.vco_switch_n_v2_0/selb          2.69671e-09
sel0                                       1.8
x1.ng1                             9.63187e-09
x1.vco_switch_n_v2_1/selb                  1.8
sel1                                         0
x1.ng2                             9.63187e-09
x1.vco_switch_n_v2_2/selb                  1.8
sel2                                         0
x1.vco_switch_n_v2_3/selb                  1.8
sel3                                         0
x1.net3                               0.900366
x1.net5                                1.79999
x1.net2                                1.78805
x1.net4                               0.374104
x1.pg3                                     1.8
x1.pg0                                 1.67179
x1.vco_switch_p_0/selb             2.69671e-09
x1.pg1                                     1.8
x1.pg2                                     1.8
x1.vco_switch_p_2/selb                     1.8
x1.vco_switch_p_1/selb                     1.8
x1.vco_switch_p_3/selb                     1.8
vdd                                        1.8
buf1_out                           2.60627e-09
net4                                4.9501e-09
net5                                4.9501e-09
net3                                4.9501e-09
buf16_out                           4.9501e-09
v1#branch                          1.68327e-11
vmeas_current_gnd#branch           1.43205e-05
vmeas_current_vdd#branch           1.43206e-05
v2#branch                         -1.43207e-05
vsel3#branch                                 0
vsel2#branch                                 0
vsel1#branch                                 0
vsel0#branch                                 0


No. of Data Rows : 7020

  Measurements for Transient Analysis

tvco_outside_while  =  2.760857e-10 targ=  1.587558e-08 trig=  1.559949e-08
fvco_outside_while  =  3.62206e+09
supply_current_rms_outside_while=   5.14872e-04 from=  1.00000e-08 to=  4.00000e-08
ground_current_rms_outside_while=   5.13950e-04 from=  1.00000e-08 to=  4.00000e-08
vctrl_avg_outside_while=  1.300000e+00 from=  1.000000e-08 to=  2.000500e-08
vhigh_outside_while =  1.926541e+00 at=  1.019500e-08
vlow_outside_while  =  -7.954191e-02 at=  1.557500e-08
peak_to_peak_outside_while=  2.00608e+00
supply_current_rms  =   5.07645e-04 from=  0.00000e+00 to=  7.00000e-08

binary raw file "3-stage_cs-vco_tb_WITH_APPENDWRITE.raw"
Reset re-loads circuit ** sch_path: /home/darunix/gitsandboxes/vco/vco/xschem/3-stage_cs-vco_tb.sch

Circuit: ** sch_path: /home/darunix/gitsandboxes/vco/vco/xschem/3-stage_cs-vco_tb.sch

option SCALE: Scale is set to 1e-06 for instance and model parameters
Doing analysis at TEMP = 27.000000 and TNOM = 27.000000

Warning: v1: no DC value, transient time 0 value used

Initial Transient Solution
--------------------------

Node                                   Voltage
----                                   -------
x1.net7                                    1.8
x1.net6                            1.16221e-06
net1                                       1.8
net2                                         0
out                                6.80528e-09
x1.vgp                                 1.67179
vctrl                                        0
x1.net8                               0.900366
x1.ng3                             9.63187e-09
x1.ng0                             3.93259e-09
x1.vco_switch_n_v2_0/selb          2.69671e-09
sel0                                       1.8
x1.ng1                             9.63187e-09
x1.vco_switch_n_v2_1/selb                  1.8
sel1                                         0
x1.ng2                             9.63187e-09
x1.vco_switch_n_v2_2/selb                  1.8
sel2                                         0
x1.vco_switch_n_v2_3/selb                  1.8
sel3                                         0
x1.net3                               0.900366
x1.net5                                1.79999
x1.net2                                1.78805
x1.net4                               0.374104
x1.pg3                                     1.8
x1.pg0                                 1.67179
x1.vco_switch_p_0/selb             2.69671e-09
x1.pg1                                     1.8
x1.pg2                                     1.8
x1.vco_switch_p_2/selb                     1.8
x1.vco_switch_p_1/selb                     1.8
x1.vco_switch_p_3/selb                     1.8
vdd                                        1.8
buf1_out                           2.60627e-09
net4                                4.9501e-09
net5                                4.9501e-09
net3                                4.9501e-09
buf16_out                           4.9501e-09
v1#branch                          1.68327e-11
vmeas_current_gnd#branch           1.43205e-05
vmeas_current_vdd#branch           1.43206e-05
v2#branch                         -1.43207e-05
vsel3#branch                                 0
vsel2#branch                                 0
vsel1#branch                                 0
vsel0#branch                                 0


No. of Data Rows : 7020

  Measurements for Transient Analysis

tvco_outside_while  =  2.734010e-10 targ=  1.576064e-08 trig=  1.548724e-08
fvco_outside_while  =  3.65763e+09
supply_current_rms_outside_while=   5.23104e-04 from=  1.00000e-08 to=  4.00000e-08
ground_current_rms_outside_while=   5.21809e-04 from=  1.00000e-08 to=  4.00000e-08
vctrl_avg_outside_while=  1.400000e+00 from=  1.000000e-08 to=  2.000500e-08
vhigh_outside_while =  1.926521e+00 at=  1.696500e-08
vlow_outside_while  =  -7.892371e-02 at=  1.026500e-08
peak_to_peak_outside_while=  2.00544e+00
supply_current_rms  =   5.15498e-04 from=  0.00000e+00 to=  7.00000e-08

binary raw file "3-stage_cs-vco_tb_WITH_APPENDWRITE.raw"
Reset re-loads circuit ** sch_path: /home/darunix/gitsandboxes/vco/vco/xschem/3-stage_cs-vco_tb.sch

Circuit: ** sch_path: /home/darunix/gitsandboxes/vco/vco/xschem/3-stage_cs-vco_tb.sch

option SCALE: Scale is set to 1e-06 for instance and model parameters
Doing analysis at TEMP = 27.000000 and TNOM = 27.000000

Warning: v1: no DC value, transient time 0 value used

Initial Transient Solution
--------------------------

Node                                   Voltage
----                                   -------
x1.net7                                    1.8
x1.net6                            1.16221e-06
net1                                       1.8
net2                                         0
out                                6.80528e-09
x1.vgp                                 1.67179
vctrl                                        0
x1.net8                               0.900366
x1.ng3                             9.63187e-09
x1.ng0                             3.93259e-09
x1.vco_switch_n_v2_0/selb          2.69671e-09
sel0                                       1.8
x1.ng1                             9.63187e-09
x1.vco_switch_n_v2_1/selb                  1.8
sel1                                         0
x1.ng2                             9.63187e-09
x1.vco_switch_n_v2_2/selb                  1.8
sel2                                         0
x1.vco_switch_n_v2_3/selb                  1.8
sel3                                         0
x1.net3                               0.900366
x1.net5                                1.79999
x1.net2                                1.78805
x1.net4                               0.374104
x1.pg3                                     1.8
x1.pg0                                 1.67179
x1.vco_switch_p_0/selb             2.69671e-09
x1.pg1                                     1.8
x1.pg2                                     1.8
x1.vco_switch_p_2/selb                     1.8
x1.vco_switch_p_1/selb                     1.8
x1.vco_switch_p_3/selb                     1.8
vdd                                        1.8
buf1_out                           2.60627e-09
net4                                4.9501e-09
net5                                4.9501e-09
net3                                4.9501e-09
buf16_out                           4.9501e-09
v1#branch                          1.68327e-11
vmeas_current_gnd#branch           1.43205e-05
vmeas_current_vdd#branch           1.43206e-05
v2#branch                         -1.43207e-05
vsel3#branch                                 0
vsel2#branch                                 0
vsel1#branch                                 0
vsel0#branch                                 0


No. of Data Rows : 7020

  Measurements for Transient Analysis

tvco_outside_while  =  2.718749e-10 targ=  1.567936e-08 trig=  1.540748e-08
fvco_outside_while  =  3.67816e+09
supply_current_rms_outside_while=   5.28488e-04 from=  1.00000e-08 to=  4.00000e-08
ground_current_rms_outside_while=   5.27383e-04 from=  1.00000e-08 to=  4.00000e-08
vctrl_avg_outside_while=  1.500000e+00 from=  1.000000e-08 to=  2.000500e-08
vhigh_outside_while =  1.926493e+00 at=  1.932500e-08
vlow_outside_while  =  -7.846929e-02 at=  1.021500e-08
peak_to_peak_outside_while=  2.00496e+00
supply_current_rms  =   5.21327e-04 from=  0.00000e+00 to=  7.00000e-08

binary raw file "3-stage_cs-vco_tb_WITH_APPENDWRITE.raw"
Reset re-loads circuit ** sch_path: /home/darunix/gitsandboxes/vco/vco/xschem/3-stage_cs-vco_tb.sch

Circuit: ** sch_path: /home/darunix/gitsandboxes/vco/vco/xschem/3-stage_cs-vco_tb.sch

option SCALE: Scale is set to 1e-06 for instance and model parameters
Doing analysis at TEMP = 27.000000 and TNOM = 27.000000

Warning: v1: no DC value, transient time 0 value used

Initial Transient Solution
--------------------------

Node                                   Voltage
----                                   -------
x1.net7                                    1.8
x1.net6                            1.16221e-06
net1                                       1.8
net2                                         0
out                                6.80528e-09
x1.vgp                                 1.67179
vctrl                                        0
x1.net8                               0.900366
x1.ng3                             9.63187e-09
x1.ng0                             3.93259e-09
x1.vco_switch_n_v2_0/selb          2.69671e-09
sel0                                       1.8
x1.ng1                             9.63187e-09
x1.vco_switch_n_v2_1/selb                  1.8
sel1                                         0
x1.ng2                             9.63187e-09
x1.vco_switch_n_v2_2/selb                  1.8
sel2                                         0
x1.vco_switch_n_v2_3/selb                  1.8
sel3                                         0
x1.net3                               0.900366
x1.net5                                1.79999
x1.net2                                1.78805
x1.net4                               0.374104
x1.pg3                                     1.8
x1.pg0                                 1.67179
x1.vco_switch_p_0/selb             2.69671e-09
x1.pg1                                     1.8
x1.pg2                                     1.8
x1.vco_switch_p_2/selb                     1.8
x1.vco_switch_p_1/selb                     1.8
x1.vco_switch_p_3/selb                     1.8
vdd                                        1.8
buf1_out                           2.60627e-09
net4                                4.9501e-09
net5                                4.9501e-09
net3                                4.9501e-09
buf16_out                           4.9501e-09
v1#branch                          1.68327e-11
vmeas_current_gnd#branch           1.43205e-05
vmeas_current_vdd#branch           1.43206e-05
v2#branch                         -1.43207e-05
vsel3#branch                                 0
vsel2#branch                                 0
vsel1#branch                                 0
vsel0#branch                                 0


No. of Data Rows : 7020

  Measurements for Transient Analysis

tvco_outside_while  =  2.707615e-10 targ=  1.561871e-08 trig=  1.534795e-08
fvco_outside_while  =  3.69329e+09
supply_current_rms_outside_while=   5.33174e-04 from=  1.00000e-08 to=  4.00000e-08
ground_current_rms_outside_while=   5.32317e-04 from=  1.00000e-08 to=  4.00000e-08
vctrl_avg_outside_while=  1.600000e+00 from=  1.000000e-08 to=  2.000500e-08
vhigh_outside_while =  1.926527e+00 at=  1.789500e-08
vlow_outside_while  =  -7.812532e-02 at=  1.261500e-08
peak_to_peak_outside_while=  2.00465e+00
supply_current_rms  =   5.25555e-04 from=  0.00000e+00 to=  7.00000e-08

binary raw file "3-stage_cs-vco_tb_WITH_APPENDWRITE.raw"
Reset re-loads circuit ** sch_path: /home/darunix/gitsandboxes/vco/vco/xschem/3-stage_cs-vco_tb.sch

Circuit: ** sch_path: /home/darunix/gitsandboxes/vco/vco/xschem/3-stage_cs-vco_tb.sch

option SCALE: Scale is set to 1e-06 for instance and model parameters
Doing analysis at TEMP = 27.000000 and TNOM = 27.000000

Warning: v1: no DC value, transient time 0 value used

Initial Transient Solution
--------------------------

Node                                   Voltage
----                                   -------
x1.net7                                    1.8
x1.net6                            1.16221e-06
net1                                       1.8
net2                                         0
out                                6.80528e-09
x1.vgp                                 1.67179
vctrl                                        0
x1.net8                               0.900366
x1.ng3                             9.63187e-09
x1.ng0                             3.93259e-09
x1.vco_switch_n_v2_0/selb          2.69671e-09
sel0                                       1.8
x1.ng1                             9.63187e-09
x1.vco_switch_n_v2_1/selb                  1.8
sel1                                         0
x1.ng2                             9.63187e-09
x1.vco_switch_n_v2_2/selb                  1.8
sel2                                         0
x1.vco_switch_n_v2_3/selb                  1.8
sel3                                         0
x1.net3                               0.900366
x1.net5                                1.79999
x1.net2                                1.78805
x1.net4                               0.374104
x1.pg3                                     1.8
x1.pg0                                 1.67179
x1.vco_switch_p_0/selb             2.69671e-09
x1.pg1                                     1.8
x1.pg2                                     1.8
x1.vco_switch_p_2/selb                     1.8
x1.vco_switch_p_1/selb                     1.8
x1.vco_switch_p_3/selb                     1.8
vdd                                        1.8
buf1_out                           2.60627e-09
net4                                4.9501e-09
net5                                4.9501e-09
net3                                4.9501e-09
buf16_out                           4.9501e-09
v1#branch                          1.68327e-11
vmeas_current_gnd#branch           1.43205e-05
vmeas_current_vdd#branch           1.43206e-05
v2#branch                         -1.43207e-05
vsel3#branch                                 0
vsel2#branch                                 0
vsel1#branch                                 0
vsel0#branch                                 0


No. of Data Rows : 7020

  Measurements for Transient Analysis

tvco_outside_while  =  2.699146e-10 targ=  1.557347e-08 trig=  1.530356e-08
fvco_outside_while  =  3.70488e+09
supply_current_rms_outside_while=   5.37077e-04 from=  1.00000e-08 to=  4.00000e-08
ground_current_rms_outside_while=   5.35532e-04 from=  1.00000e-08 to=  4.00000e-08
vctrl_avg_outside_while=  1.700000e+00 from=  1.000000e-08 to=  2.000500e-08
vhigh_outside_while =  1.926524e+00 at=  1.001500e-08
vlow_outside_while  =  -7.601775e-02 at=  1.986500e-08
peak_to_peak_outside_while=  2.00254e+00
supply_current_rms  =   5.28741e-04 from=  0.00000e+00 to=  7.00000e-08

binary raw file "3-stage_cs-vco_tb_WITH_APPENDWRITE.raw"
Reset re-loads circuit ** sch_path: /home/darunix/gitsandboxes/vco/vco/xschem/3-stage_cs-vco_tb.sch

Circuit: ** sch_path: /home/darunix/gitsandboxes/vco/vco/xschem/3-stage_cs-vco_tb.sch

option SCALE: Scale is set to 1e-06 for instance and model parameters
Doing analysis at TEMP = 27.000000 and TNOM = 27.000000

Warning: v1: no DC value, transient time 0 value used

Initial Transient Solution
--------------------------

Node                                   Voltage
----                                   -------
x1.net7                                    1.8
x1.net6                            1.16221e-06
net1                                       1.8
net2                                         0
out                                6.80528e-09
x1.vgp                                 1.67179
vctrl                                        0
x1.net8                               0.900366
x1.ng3                             9.63187e-09
x1.ng0                             3.93259e-09
x1.vco_switch_n_v2_0/selb          2.69671e-09
sel0                                       1.8
x1.ng1                             9.63187e-09
x1.vco_switch_n_v2_1/selb                  1.8
sel1                                         0
x1.ng2                             9.63187e-09
x1.vco_switch_n_v2_2/selb                  1.8
sel2                                         0
x1.vco_switch_n_v2_3/selb                  1.8
sel3                                         0
x1.net3                               0.900366
x1.net5                                1.79999
x1.net2                                1.78805
x1.net4                               0.374104
x1.pg3                                     1.8
x1.pg0                                 1.67179
x1.vco_switch_p_0/selb             2.69671e-09
x1.pg1                                     1.8
x1.pg2                                     1.8
x1.vco_switch_p_2/selb                     1.8
x1.vco_switch_p_1/selb                     1.8
x1.vco_switch_p_3/selb                     1.8
vdd                                        1.8
buf1_out                           2.60627e-09
net4                                4.9501e-09
net5                                4.9501e-09
net3                                4.9501e-09
buf16_out                           4.9501e-09
v1#branch                          1.68327e-11
vmeas_current_gnd#branch           1.43205e-05
vmeas_current_vdd#branch           1.43206e-05
v2#branch                         -1.43207e-05
vsel3#branch                                 0
vsel2#branch                                 0
vsel1#branch                                 0
vsel0#branch                                 0


No. of Data Rows : 7020

  Measurements for Transient Analysis

tvco_outside_while  =  2.692925e-10 targ=  1.553575e-08 trig=  1.526645e-08
fvco_outside_while  =  3.71343e+09
supply_current_rms_outside_while=   5.39514e-04 from=  1.00000e-08 to=  4.00000e-08
ground_current_rms_outside_while=   5.38203e-04 from=  1.00000e-08 to=  4.00000e-08
vctrl_avg_outside_while=  1.800000e+00 from=  1.000000e-08 to=  2.000500e-08
vhigh_outside_while =  1.926548e+00 at=  1.914500e-08
vlow_outside_while  =  -7.762978e-02 at=  1.416500e-08
peak_to_peak_outside_while=  2.00418e+00
supply_current_rms  =   5.31855e-04 from=  0.00000e+00 to=  7.00000e-08

binary raw file "3-stage_cs-vco_tb_WITH_APPENDWRITE.raw"
Doing analysis at TEMP = 27.000000 and TNOM = 27.000000

Warning: v1: no DC value, transient time 0 value used

  Measurements for Transient Analysis

tvco_outside_while  =  2.692925e-10 targ=  1.553575e-08 trig=  1.526645e-08
Original line no.: 0, new internal line no.: 12460:
insertnumber: fails.
  s = ".meas tran fvco_outside_while param=    3.713433935801915e+09   " u="  3.713433935801915e+09  " id=0
fvco_outside_while  =  3.71343e+09
supply_current_rms_outside_while=   5.39514e-04 from=  1.00000e-08 to=  4.00000e-08
ground_current_rms_outside_while=   5.38203e-04 from=  1.00000e-08 to=  4.00000e-08
vctrl_avg_outside_while=  1.800000e+00 from=  1.000000e-08 to=  2.000500e-08
vhigh_outside_while =  1.926548e+00 at=  1.914500e-08
vlow_outside_while  =  -7.762978e-02 at=  1.416500e-08
Original line no.: 0, new internal line no.: 12466:
insertnumber: fails.
  s = ".meas tran peak_to_peak_outside_while param=    2.004178094097200e+00   " u="  2.004178094097200e+00  " id=0
peak_to_peak_outside_while=  2.00418e+00
supply_current_rms  =   5.31855e-04 from=  0.00000e+00 to=  7.00000e-08


Total analysis time (seconds) = 10.2395

Total CPU time (seconds) = 203.646 

Total DRAM available = 7952.234 MB.
DRAM currently available =  117.641 MB.
Maximum ngspice program size =  684.824 MB.
Current ngspice program size =  665.957 MB.

Shared ngspice pages =    8.852 MB.
Text (code) pages =    7.879 MB.
Stack = 0 bytes.
Library pages =  657.340 MB.

