
Compatibility modes selected: hs a

Warning: m=xx on .subckt line will override multiplier m hierarchy!


Circuit: ** sch_path: /home/darunix/gitsandboxes/vco/vco/xschem/3-stage_cs-vco_tb.sch

option SCALE: Scale is set to 1e-06 for instance and model parameters
Reset re-loads circuit ** sch_path: /home/darunix/gitsandboxes/vco/vco/xschem/3-stage_cs-vco_tb.sch

Circuit: ** sch_path: /home/darunix/gitsandboxes/vco/vco/xschem/3-stage_cs-vco_tb.sch

option SCALE: Scale is set to 1e-06 for instance and model parameters
Reset re-loads circuit ** sch_path: /home/darunix/gitsandboxes/vco/vco/xschem/3-stage_cs-vco_tb.sch

Circuit: ** sch_path: /home/darunix/gitsandboxes/vco/vco/xschem/3-stage_cs-vco_tb.sch

option SCALE: Scale is set to 1e-06 for instance and model parameters
Doing analysis at TEMP = 27.000000 and TNOM = 27.000000

Warning: v1: no DC value, transient time 0 value used

Initial Transient Solution
--------------------------

Node                                   Voltage
----                                   -------
x1.net7                                    1.8
x1.net6                            1.16209e-06
net1                                       1.8
net2                                         0
out                                6.80528e-09
x1.vgp                                 1.66135
vctrl                                        0
x1.net8                               0.952127
x1.ng3                             9.63187e-09
x1.ng0                             3.93259e-09
x1.vco_switch_n_v2_0/selb          2.69671e-09
sel0                                       1.8
x1.ng1                             3.93259e-09
x1.vco_switch_n_v2_1/selb          2.69671e-09
sel1                                       1.8
x1.ng2                             3.93259e-09
x1.vco_switch_n_v2_2/selb          2.69671e-09
sel2                                       1.8
x1.vco_switch_n_v2_3/selb                  1.8
sel3                                         0
x1.net3                               0.952128
x1.net5                                    1.8
x1.net2                                 1.7937
x1.net4                               0.102646
x1.pg3                                     1.8
x1.pg0                                 1.66135
x1.vco_switch_p_0/selb             2.69671e-09
x1.pg1                                 1.66135
x1.pg2                                 1.66135
x1.vco_switch_p_2/selb             2.69671e-09
x1.vco_switch_p_1/selb             2.69671e-09
x1.vco_switch_p_3/selb                     1.8
vdd                                        1.8
buf1_out                           2.60627e-09
net4                                4.9501e-09
net5                                4.9501e-09
net3                                4.9501e-09
buf16_out                           4.9501e-09
v1#branch                          1.52147e-11
vmeas_current_gnd#branch           1.30191e-05
vmeas_current_vdd#branch           1.30191e-05
v2#branch                         -1.30192e-05
vsel3#branch                                 0
vsel2#branch                                 0
vsel1#branch                                 0
vsel0#branch                                 0


No. of Data Rows : 7020

  Measurements for Transient Analysis


Error: measure  tvco_outside_while  (TRIG) : out of interval
 .meas tran tvco_outside_while trig v(out) val=0.5*1.8 rise=50 targ v(out) val=0.5*1.8 rise=51 failed!

Original line no.: 0, new internal line no.: 12460:
Undefined number [tvco_outside_while]
Original line no.: 0, new internal line no.: 12460:
Cannot compute substitute
fvco_outside_while  =   failed
supply_current_rms_outside_while=   4.04634e-05 from=  1.00000e-08 to=  4.00000e-08
ground_current_rms_outside_while=   3.44770e-05 from=  1.00000e-08 to=  4.00000e-08
vctrl_avg_outside_while=  0.000000e+00 from=  1.000000e-08 to=  2.000500e-08
vhigh_outside_while =  6.017106e-06 at=  1.194500e-08
vlow_outside_while  =  -5.410462e-06 at=  1.099500e-08
peak_to_peak_outside_while=  1.14276e-05
supply_current_rms  =   6.25872e-05 from=  0.00000e+00 to=  7.00000e-08

binary raw file "3-stage_cs-vco_tb_WITH_APPENDWRITE.raw"
Reset re-loads circuit ** sch_path: /home/darunix/gitsandboxes/vco/vco/xschem/3-stage_cs-vco_tb.sch

Circuit: ** sch_path: /home/darunix/gitsandboxes/vco/vco/xschem/3-stage_cs-vco_tb.sch

option SCALE: Scale is set to 1e-06 for instance and model parameters
Doing analysis at TEMP = 27.000000 and TNOM = 27.000000

Warning: v1: no DC value, transient time 0 value used

Initial Transient Solution
--------------------------

Node                                   Voltage
----                                   -------
x1.net7                                    1.8
x1.net6                            1.16209e-06
net1                                       1.8
net2                                         0
out                                6.80528e-09
x1.vgp                                 1.66135
vctrl                                        0
x1.net8                               0.952127
x1.ng3                             9.63187e-09
x1.ng0                             3.93259e-09
x1.vco_switch_n_v2_0/selb          2.69671e-09
sel0                                       1.8
x1.ng1                             3.93259e-09
x1.vco_switch_n_v2_1/selb          2.69671e-09
sel1                                       1.8
x1.ng2                             3.93259e-09
x1.vco_switch_n_v2_2/selb          2.69671e-09
sel2                                       1.8
x1.vco_switch_n_v2_3/selb                  1.8
sel3                                         0
x1.net3                               0.952128
x1.net5                                    1.8
x1.net2                                 1.7937
x1.net4                               0.102646
x1.pg3                                     1.8
x1.pg0                                 1.66135
x1.vco_switch_p_0/selb             2.69671e-09
x1.pg1                                 1.66135
x1.pg2                                 1.66135
x1.vco_switch_p_2/selb             2.69671e-09
x1.vco_switch_p_1/selb             2.69671e-09
x1.vco_switch_p_3/selb                     1.8
vdd                                        1.8
buf1_out                           2.60627e-09
net4                                4.9501e-09
net5                                4.9501e-09
net3                                4.9501e-09
buf16_out                           4.9501e-09
v1#branch                          1.52147e-11
vmeas_current_gnd#branch           1.30191e-05
vmeas_current_vdd#branch           1.30191e-05
v2#branch                         -1.30192e-05
vsel3#branch                                 0
vsel2#branch                                 0
vsel1#branch                                 0
vsel0#branch                                 0


No. of Data Rows : 7020

  Measurements for Transient Analysis


Error: measure  tvco_outside_while  (TRIG) : out of interval
 .meas tran tvco_outside_while trig v(out) val=0.5*1.8 rise=50 targ v(out) val=0.5*1.8 rise=51 failed!

Original line no.: 0, new internal line no.: 12460:
Undefined number [tvco_outside_while]
Original line no.: 0, new internal line no.: 12460:
Cannot compute substitute
fvco_outside_while  =   failed
supply_current_rms_outside_while=   1.57226e-05 from=  1.00000e-08 to=  4.00000e-08
ground_current_rms_outside_while=   2.51039e-05 from=  1.00000e-08 to=  4.00000e-08
vctrl_avg_outside_while=  1.000000e-01 from=  1.000000e-08 to=  2.000500e-08
vhigh_outside_while =  3.009703e-06 at=  1.000500e-08
vlow_outside_while  =  -2.219146e-06 at=  1.001500e-08
peak_to_peak_outside_while=  5.22885e-06
supply_current_rms  =   5.36892e-05 from=  0.00000e+00 to=  7.00000e-08

binary raw file "3-stage_cs-vco_tb_WITH_APPENDWRITE.raw"
Reset re-loads circuit ** sch_path: /home/darunix/gitsandboxes/vco/vco/xschem/3-stage_cs-vco_tb.sch

Circuit: ** sch_path: /home/darunix/gitsandboxes/vco/vco/xschem/3-stage_cs-vco_tb.sch

option SCALE: Scale is set to 1e-06 for instance and model parameters
Doing analysis at TEMP = 27.000000 and TNOM = 27.000000

Warning: v1: no DC value, transient time 0 value used

Initial Transient Solution
--------------------------

Node                                   Voltage
----                                   -------
x1.net7                                    1.8
x1.net6                            1.16209e-06
net1                                       1.8
net2                                         0
out                                6.80528e-09
x1.vgp                                 1.66135
vctrl                                        0
x1.net8                               0.952127
x1.ng3                             9.63187e-09
x1.ng0                             3.93259e-09
x1.vco_switch_n_v2_0/selb          2.69671e-09
sel0                                       1.8
x1.ng1                             3.93259e-09
x1.vco_switch_n_v2_1/selb          2.69671e-09
sel1                                       1.8
x1.ng2                             3.93259e-09
x1.vco_switch_n_v2_2/selb          2.69671e-09
sel2                                       1.8
x1.vco_switch_n_v2_3/selb                  1.8
sel3                                         0
x1.net3                               0.952128
x1.net5                                    1.8
x1.net2                                 1.7937
x1.net4                               0.102646
x1.pg3                                     1.8
x1.pg0                                 1.66135
x1.vco_switch_p_0/selb             2.69671e-09
x1.pg1                                 1.66135
x1.pg2                                 1.66135
x1.vco_switch_p_2/selb             2.69671e-09
x1.vco_switch_p_1/selb             2.69671e-09
x1.vco_switch_p_3/selb                     1.8
vdd                                        1.8
buf1_out                           2.60627e-09
net4                                4.9501e-09
net5                                4.9501e-09
net3                                4.9501e-09
buf16_out                           4.9501e-09
v1#branch                          1.52147e-11
vmeas_current_gnd#branch           1.30191e-05
vmeas_current_vdd#branch           1.30191e-05
v2#branch                         -1.30192e-05
vsel3#branch                                 0
vsel2#branch                                 0
vsel1#branch                                 0
vsel0#branch                                 0


No. of Data Rows : 7020

  Measurements for Transient Analysis


Error: measure  tvco_outside_while  (TRIG) : out of interval
 .meas tran tvco_outside_while trig v(out) val=0.5*1.8 rise=50 targ v(out) val=0.5*1.8 rise=51 failed!

Original line no.: 0, new internal line no.: 12460:
Undefined number [tvco_outside_while]
Original line no.: 0, new internal line no.: 12460:
Cannot compute substitute
fvco_outside_while  =   failed
supply_current_rms_outside_while=   1.60060e-05 from=  1.00000e-08 to=  4.00000e-08
ground_current_rms_outside_while=   2.19535e-05 from=  1.00000e-08 to=  4.00000e-08
vctrl_avg_outside_while=  2.000000e-01 from=  1.000000e-08 to=  2.000500e-08
vhigh_outside_while =  1.954152e-06 at=  1.153500e-08
vlow_outside_while  =  -1.677610e-06 at=  1.080500e-08
peak_to_peak_outside_while=  3.63176e-06
supply_current_rms  =   5.29154e-05 from=  0.00000e+00 to=  7.00000e-08

binary raw file "3-stage_cs-vco_tb_WITH_APPENDWRITE.raw"
Reset re-loads circuit ** sch_path: /home/darunix/gitsandboxes/vco/vco/xschem/3-stage_cs-vco_tb.sch

Circuit: ** sch_path: /home/darunix/gitsandboxes/vco/vco/xschem/3-stage_cs-vco_tb.sch

option SCALE: Scale is set to 1e-06 for instance and model parameters
Doing analysis at TEMP = 27.000000 and TNOM = 27.000000

Warning: v1: no DC value, transient time 0 value used

Initial Transient Solution
--------------------------

Node                                   Voltage
----                                   -------
x1.net7                                    1.8
x1.net6                            1.16209e-06
net1                                       1.8
net2                                         0
out                                6.80528e-09
x1.vgp                                 1.66135
vctrl                                        0
x1.net8                               0.952127
x1.ng3                             9.63187e-09
x1.ng0                             3.93259e-09
x1.vco_switch_n_v2_0/selb          2.69671e-09
sel0                                       1.8
x1.ng1                             3.93259e-09
x1.vco_switch_n_v2_1/selb          2.69671e-09
sel1                                       1.8
x1.ng2                             3.93259e-09
x1.vco_switch_n_v2_2/selb          2.69671e-09
sel2                                       1.8
x1.vco_switch_n_v2_3/selb                  1.8
sel3                                         0
x1.net3                               0.952128
x1.net5                                    1.8
x1.net2                                 1.7937
x1.net4                               0.102646
x1.pg3                                     1.8
x1.pg0                                 1.66135
x1.vco_switch_p_0/selb             2.69671e-09
x1.pg1                                 1.66135
x1.pg2                                 1.66135
x1.vco_switch_p_2/selb             2.69671e-09
x1.vco_switch_p_1/selb             2.69671e-09
x1.vco_switch_p_3/selb                     1.8
vdd                                        1.8
buf1_out                           2.60627e-09
net4                                4.9501e-09
net5                                4.9501e-09
net3                                4.9501e-09
buf16_out                           4.9501e-09
v1#branch                          1.52147e-11
vmeas_current_gnd#branch           1.30191e-05
vmeas_current_vdd#branch           1.30191e-05
v2#branch                         -1.30192e-05
vsel3#branch                                 0
vsel2#branch                                 0
vsel1#branch                                 0
vsel0#branch                                 0


No. of Data Rows : 7020

  Measurements for Transient Analysis


Error: measure  tvco_outside_while  (TRIG) : out of interval
 .meas tran tvco_outside_while trig v(out) val=0.5*1.8 rise=50 targ v(out) val=0.5*1.8 rise=51 failed!

Original line no.: 0, new internal line no.: 12460:
Undefined number [tvco_outside_while]
Original line no.: 0, new internal line no.: 12460:
Cannot compute substitute
fvco_outside_while  =   failed
supply_current_rms_outside_while=   3.35176e-05 from=  1.00000e-08 to=  4.00000e-08
ground_current_rms_outside_while=   3.20154e-05 from=  1.00000e-08 to=  4.00000e-08
vctrl_avg_outside_while=  3.000000e-01 from=  1.000000e-08 to=  2.000500e-08
vhigh_outside_while =  1.472920e-05 at=  1.001500e-08
vlow_outside_while  =  -1.472254e-05 at=  1.000500e-08
peak_to_peak_outside_while=  2.94517e-05
supply_current_rms  =   5.96312e-05 from=  0.00000e+00 to=  7.00000e-08

binary raw file "3-stage_cs-vco_tb_WITH_APPENDWRITE.raw"
Reset re-loads circuit ** sch_path: /home/darunix/gitsandboxes/vco/vco/xschem/3-stage_cs-vco_tb.sch

Circuit: ** sch_path: /home/darunix/gitsandboxes/vco/vco/xschem/3-stage_cs-vco_tb.sch

option SCALE: Scale is set to 1e-06 for instance and model parameters
Doing analysis at TEMP = 27.000000 and TNOM = 27.000000

Warning: v1: no DC value, transient time 0 value used

Initial Transient Solution
--------------------------

Node                                   Voltage
----                                   -------
x1.net7                                    1.8
x1.net6                            1.16209e-06
net1                                       1.8
net2                                         0
out                                6.80528e-09
x1.vgp                                 1.66135
vctrl                                        0
x1.net8                               0.952127
x1.ng3                             9.63187e-09
x1.ng0                             3.93259e-09
x1.vco_switch_n_v2_0/selb          2.69671e-09
sel0                                       1.8
x1.ng1                             3.93259e-09
x1.vco_switch_n_v2_1/selb          2.69671e-09
sel1                                       1.8
x1.ng2                             3.93259e-09
x1.vco_switch_n_v2_2/selb          2.69671e-09
sel2                                       1.8
x1.vco_switch_n_v2_3/selb                  1.8
sel3                                         0
x1.net3                               0.952128
x1.net5                                    1.8
x1.net2                                 1.7937
x1.net4                               0.102646
x1.pg3                                     1.8
x1.pg0                                 1.66135
x1.vco_switch_p_0/selb             2.69671e-09
x1.pg1                                 1.66135
x1.pg2                                 1.66135
x1.vco_switch_p_2/selb             2.69671e-09
x1.vco_switch_p_1/selb             2.69671e-09
x1.vco_switch_p_3/selb                     1.8
vdd                                        1.8
buf1_out                           2.60627e-09
net4                                4.9501e-09
net5                                4.9501e-09
net3                                4.9501e-09
buf16_out                           4.9501e-09
v1#branch                          1.52147e-11
vmeas_current_gnd#branch           1.30191e-05
vmeas_current_vdd#branch           1.30191e-05
v2#branch                         -1.30192e-05
vsel3#branch                                 0
vsel2#branch                                 0
vsel1#branch                                 0
vsel0#branch                                 0


No. of Data Rows : 7020

  Measurements for Transient Analysis


Error: measure  tvco_outside_while  (TRIG) : out of interval
 .meas tran tvco_outside_while trig v(out) val=0.5*1.8 rise=50 targ v(out) val=0.5*1.8 rise=51 failed!

Original line no.: 0, new internal line no.: 12460:
Undefined number [tvco_outside_while]
Original line no.: 0, new internal line no.: 12460:
Cannot compute substitute
fvco_outside_while  =   failed
supply_current_rms_outside_while=   1.43326e-05 from=  1.00000e-08 to=  4.00000e-08
ground_current_rms_outside_while=   3.00414e-05 from=  1.00000e-08 to=  4.00000e-08
vctrl_avg_outside_while=  4.000000e-01 from=  1.000000e-08 to=  2.000500e-08
vhigh_outside_while =  2.265351e-06 at=  1.000500e-08
vlow_outside_while  =  -2.238907e-06 at=  1.001500e-08
peak_to_peak_outside_while=  4.50426e-06
supply_current_rms  =   5.35174e-05 from=  0.00000e+00 to=  7.00000e-08

binary raw file "3-stage_cs-vco_tb_WITH_APPENDWRITE.raw"
Reset re-loads circuit ** sch_path: /home/darunix/gitsandboxes/vco/vco/xschem/3-stage_cs-vco_tb.sch

Circuit: ** sch_path: /home/darunix/gitsandboxes/vco/vco/xschem/3-stage_cs-vco_tb.sch

option SCALE: Scale is set to 1e-06 for instance and model parameters
Doing analysis at TEMP = 27.000000 and TNOM = 27.000000

Warning: v1: no DC value, transient time 0 value used

Initial Transient Solution
--------------------------

Node                                   Voltage
----                                   -------
x1.net7                                    1.8
x1.net6                            1.16209e-06
net1                                       1.8
net2                                         0
out                                6.80528e-09
x1.vgp                                 1.66135
vctrl                                        0
x1.net8                               0.952127
x1.ng3                             9.63187e-09
x1.ng0                             3.93259e-09
x1.vco_switch_n_v2_0/selb          2.69671e-09
sel0                                       1.8
x1.ng1                             3.93259e-09
x1.vco_switch_n_v2_1/selb          2.69671e-09
sel1                                       1.8
x1.ng2                             3.93259e-09
x1.vco_switch_n_v2_2/selb          2.69671e-09
sel2                                       1.8
x1.vco_switch_n_v2_3/selb                  1.8
sel3                                         0
x1.net3                               0.952128
x1.net5                                    1.8
x1.net2                                 1.7937
x1.net4                               0.102646
x1.pg3                                     1.8
x1.pg0                                 1.66135
x1.vco_switch_p_0/selb             2.69671e-09
x1.pg1                                 1.66135
x1.pg2                                 1.66135
x1.vco_switch_p_2/selb             2.69671e-09
x1.vco_switch_p_1/selb             2.69671e-09
x1.vco_switch_p_3/selb                     1.8
vdd                                        1.8
buf1_out                           2.60627e-09
net4                                4.9501e-09
net5                                4.9501e-09
net3                                4.9501e-09
buf16_out                           4.9501e-09
v1#branch                          1.52147e-11
vmeas_current_gnd#branch           1.30191e-05
vmeas_current_vdd#branch           1.30191e-05
v2#branch                         -1.30192e-05
vsel3#branch                                 0
vsel2#branch                                 0
vsel1#branch                                 0
vsel0#branch                                 0


No. of Data Rows : 7020

  Measurements for Transient Analysis


Error: measure  tvco_outside_while  (TRIG) : out of interval
 .meas tran tvco_outside_while trig v(out) val=0.5*1.8 rise=50 targ v(out) val=0.5*1.8 rise=51 failed!

Original line no.: 0, new internal line no.: 12460:
Undefined number [tvco_outside_while]
Original line no.: 0, new internal line no.: 12460:
Cannot compute substitute
fvco_outside_while  =   failed
supply_current_rms_outside_while=   3.93489e-05 from=  1.00000e-08 to=  4.00000e-08
ground_current_rms_outside_while=   4.54095e-05 from=  1.00000e-08 to=  4.00000e-08
vctrl_avg_outside_while=  5.000000e-01 from=  1.000000e-08 to=  2.000500e-08
vhigh_outside_while =  1.834946e+00 at=  1.132500e-08
vlow_outside_while  =  -7.450899e-02 at=  1.123500e-08
peak_to_peak_outside_while=  1.90945e+00
supply_current_rms  =   6.56019e-05 from=  0.00000e+00 to=  7.00000e-08

binary raw file "3-stage_cs-vco_tb_WITH_APPENDWRITE.raw"
Reset re-loads circuit ** sch_path: /home/darunix/gitsandboxes/vco/vco/xschem/3-stage_cs-vco_tb.sch

Circuit: ** sch_path: /home/darunix/gitsandboxes/vco/vco/xschem/3-stage_cs-vco_tb.sch

option SCALE: Scale is set to 1e-06 for instance and model parameters
Doing analysis at TEMP = 27.000000 and TNOM = 27.000000

Warning: v1: no DC value, transient time 0 value used

Initial Transient Solution
--------------------------

Node                                   Voltage
----                                   -------
x1.net7                                    1.8
x1.net6                            1.16209e-06
net1                                       1.8
net2                                         0
out                                6.80528e-09
x1.vgp                                 1.66135
vctrl                                        0
x1.net8                               0.952127
x1.ng3                             9.63187e-09
x1.ng0                             3.93259e-09
x1.vco_switch_n_v2_0/selb          2.69671e-09
sel0                                       1.8
x1.ng1                             3.93259e-09
x1.vco_switch_n_v2_1/selb          2.69671e-09
sel1                                       1.8
x1.ng2                             3.93259e-09
x1.vco_switch_n_v2_2/selb          2.69671e-09
sel2                                       1.8
x1.vco_switch_n_v2_3/selb                  1.8
sel3                                         0
x1.net3                               0.952128
x1.net5                                    1.8
x1.net2                                 1.7937
x1.net4                               0.102646
x1.pg3                                     1.8
x1.pg0                                 1.66135
x1.vco_switch_p_0/selb             2.69671e-09
x1.pg1                                 1.66135
x1.pg2                                 1.66135
x1.vco_switch_p_2/selb             2.69671e-09
x1.vco_switch_p_1/selb             2.69671e-09
x1.vco_switch_p_3/selb                     1.8
vdd                                        1.8
buf1_out                           2.60627e-09
net4                                4.9501e-09
net5                                4.9501e-09
net3                                4.9501e-09
buf16_out                           4.9501e-09
v1#branch                          1.52147e-11
vmeas_current_gnd#branch           1.30191e-05
vmeas_current_vdd#branch           1.30191e-05
v2#branch                         -1.30192e-05
vsel3#branch                                 0
vsel2#branch                                 0
vsel1#branch                                 0
vsel0#branch                                 0


No. of Data Rows : 7020

  Measurements for Transient Analysis

tvco_outside_while  =  1.598954e-09 targ=  6.333837e-08 trig=  6.173942e-08
fvco_outside_while  =  6.25409e+08
supply_current_rms_outside_while=   1.48989e-04 from=  1.00000e-08 to=  4.00000e-08
ground_current_rms_outside_while=   1.56236e-04 from=  1.00000e-08 to=  4.00000e-08
vctrl_avg_outside_while=  6.000000e-01 from=  1.000000e-08 to=  2.000500e-08
vhigh_outside_while =  1.927695e+00 at=  1.105500e-08
vlow_outside_while  =  -8.347376e-02 at=  1.329500e-08
peak_to_peak_outside_while=  2.01117e+00
supply_current_rms  =   1.60211e-04 from=  0.00000e+00 to=  7.00000e-08

binary raw file "3-stage_cs-vco_tb_WITH_APPENDWRITE.raw"
Reset re-loads circuit ** sch_path: /home/darunix/gitsandboxes/vco/vco/xschem/3-stage_cs-vco_tb.sch

Circuit: ** sch_path: /home/darunix/gitsandboxes/vco/vco/xschem/3-stage_cs-vco_tb.sch

option SCALE: Scale is set to 1e-06 for instance and model parameters
Doing analysis at TEMP = 27.000000 and TNOM = 27.000000

Warning: v1: no DC value, transient time 0 value used

Initial Transient Solution
--------------------------

Node                                   Voltage
----                                   -------
x1.net7                                    1.8
x1.net6                            1.16209e-06
net1                                       1.8
net2                                         0
out                                6.80528e-09
x1.vgp                                 1.66135
vctrl                                        0
x1.net8                               0.952127
x1.ng3                             9.63187e-09
x1.ng0                             3.93259e-09
x1.vco_switch_n_v2_0/selb          2.69671e-09
sel0                                       1.8
x1.ng1                             3.93259e-09
x1.vco_switch_n_v2_1/selb          2.69671e-09
sel1                                       1.8
x1.ng2                             3.93259e-09
x1.vco_switch_n_v2_2/selb          2.69671e-09
sel2                                       1.8
x1.vco_switch_n_v2_3/selb                  1.8
sel3                                         0
x1.net3                               0.952128
x1.net5                                    1.8
x1.net2                                 1.7937
x1.net4                               0.102646
x1.pg3                                     1.8
x1.pg0                                 1.66135
x1.vco_switch_p_0/selb             2.69671e-09
x1.pg1                                 1.66135
x1.pg2                                 1.66135
x1.vco_switch_p_2/selb             2.69671e-09
x1.vco_switch_p_1/selb             2.69671e-09
x1.vco_switch_p_3/selb                     1.8
vdd                                        1.8
buf1_out                           2.60627e-09
net4                                4.9501e-09
net5                                4.9501e-09
net3                                4.9501e-09
buf16_out                           4.9501e-09
v1#branch                          1.52147e-11
vmeas_current_gnd#branch           1.30191e-05
vmeas_current_vdd#branch           1.30191e-05
v2#branch                         -1.30192e-05
vsel3#branch                                 0
vsel2#branch                                 0
vsel1#branch                                 0
vsel0#branch                                 0


No. of Data Rows : 7020

  Measurements for Transient Analysis

tvco_outside_while  =  5.081865e-10 targ=  2.724422e-08 trig=  2.673603e-08
fvco_outside_while  =  1.96778e+09
supply_current_rms_outside_while=   2.56493e-04 from=  1.00000e-08 to=  4.00000e-08
ground_current_rms_outside_while=   2.53037e-04 from=  1.00000e-08 to=  4.00000e-08
vctrl_avg_outside_while=  7.000000e-01 from=  1.000000e-08 to=  2.000500e-08
vhigh_outside_while =  1.928334e+00 at=  1.744500e-08
vlow_outside_while  =  -7.095087e-02 at=  1.959500e-08
peak_to_peak_outside_while=  1.99928e+00
supply_current_rms  =   2.52753e-04 from=  0.00000e+00 to=  7.00000e-08

binary raw file "3-stage_cs-vco_tb_WITH_APPENDWRITE.raw"
Reset re-loads circuit ** sch_path: /home/darunix/gitsandboxes/vco/vco/xschem/3-stage_cs-vco_tb.sch

Circuit: ** sch_path: /home/darunix/gitsandboxes/vco/vco/xschem/3-stage_cs-vco_tb.sch

option SCALE: Scale is set to 1e-06 for instance and model parameters
Doing analysis at TEMP = 27.000000 and TNOM = 27.000000

Warning: v1: no DC value, transient time 0 value used

Initial Transient Solution
--------------------------

Node                                   Voltage
----                                   -------
x1.net7                                    1.8
x1.net6                            1.16209e-06
net1                                       1.8
net2                                         0
out                                6.80528e-09
x1.vgp                                 1.66135
vctrl                                        0
x1.net8                               0.952127
x1.ng3                             9.63187e-09
x1.ng0                             3.93259e-09
x1.vco_switch_n_v2_0/selb          2.69671e-09
sel0                                       1.8
x1.ng1                             3.93259e-09
x1.vco_switch_n_v2_1/selb          2.69671e-09
sel1                                       1.8
x1.ng2                             3.93259e-09
x1.vco_switch_n_v2_2/selb          2.69671e-09
sel2                                       1.8
x1.vco_switch_n_v2_3/selb                  1.8
sel3                                         0
x1.net3                               0.952128
x1.net5                                    1.8
x1.net2                                 1.7937
x1.net4                               0.102646
x1.pg3                                     1.8
x1.pg0                                 1.66135
x1.vco_switch_p_0/selb             2.69671e-09
x1.pg1                                 1.66135
x1.pg2                                 1.66135
x1.vco_switch_p_2/selb             2.69671e-09
x1.vco_switch_p_1/selb             2.69671e-09
x1.vco_switch_p_3/selb                     1.8
vdd                                        1.8
buf1_out                           2.60627e-09
net4                                4.9501e-09
net5                                4.9501e-09
net3                                4.9501e-09
buf16_out                           4.9501e-09
v1#branch                          1.52147e-11
vmeas_current_gnd#branch           1.30191e-05
vmeas_current_vdd#branch           1.30191e-05
v2#branch                         -1.30192e-05
vsel3#branch                                 0
vsel2#branch                                 0
vsel1#branch                                 0
vsel0#branch                                 0


No. of Data Rows : 7020

  Measurements for Transient Analysis

tvco_outside_while  =  2.929823e-10 targ=  1.727859e-08 trig=  1.698560e-08
fvco_outside_while  =  3.41318e+09
supply_current_rms_outside_while=   4.06648e-04 from=  1.00000e-08 to=  4.00000e-08
ground_current_rms_outside_while=   3.99109e-04 from=  1.00000e-08 to=  4.00000e-08
vctrl_avg_outside_while=  8.000000e-01 from=  1.000000e-08 to=  2.000500e-08
vhigh_outside_while =  1.927557e+00 at=  1.065500e-08
vlow_outside_while  =  -8.108597e-02 at=  1.021500e-08
peak_to_peak_outside_while=  2.00864e+00
supply_current_rms  =   3.95524e-04 from=  0.00000e+00 to=  7.00000e-08

binary raw file "3-stage_cs-vco_tb_WITH_APPENDWRITE.raw"
Reset re-loads circuit ** sch_path: /home/darunix/gitsandboxes/vco/vco/xschem/3-stage_cs-vco_tb.sch

Circuit: ** sch_path: /home/darunix/gitsandboxes/vco/vco/xschem/3-stage_cs-vco_tb.sch

option SCALE: Scale is set to 1e-06 for instance and model parameters
Doing analysis at TEMP = 27.000000 and TNOM = 27.000000

Warning: v1: no DC value, transient time 0 value used

Initial Transient Solution
--------------------------

Node                                   Voltage
----                                   -------
x1.net7                                    1.8
x1.net6                            1.16209e-06
net1                                       1.8
net2                                         0
out                                6.80528e-09
x1.vgp                                 1.66135
vctrl                                        0
x1.net8                               0.952127
x1.ng3                             9.63187e-09
x1.ng0                             3.93259e-09
x1.vco_switch_n_v2_0/selb          2.69671e-09
sel0                                       1.8
x1.ng1                             3.93259e-09
x1.vco_switch_n_v2_1/selb          2.69671e-09
sel1                                       1.8
x1.ng2                             3.93259e-09
x1.vco_switch_n_v2_2/selb          2.69671e-09
sel2                                       1.8
x1.vco_switch_n_v2_3/selb                  1.8
sel3                                         0
x1.net3                               0.952128
x1.net5                                    1.8
x1.net2                                 1.7937
x1.net4                               0.102646
x1.pg3                                     1.8
x1.pg0                                 1.66135
x1.vco_switch_p_0/selb             2.69671e-09
x1.pg1                                 1.66135
x1.pg2                                 1.66135
x1.vco_switch_p_2/selb             2.69671e-09
x1.vco_switch_p_1/selb             2.69671e-09
x1.vco_switch_p_3/selb                     1.8
vdd                                        1.8
buf1_out                           2.60627e-09
net4                                4.9501e-09
net5                                4.9501e-09
net3                                4.9501e-09
buf16_out                           4.9501e-09
v1#branch                          1.52147e-11
vmeas_current_gnd#branch           1.30191e-05
vmeas_current_vdd#branch           1.30191e-05
v2#branch                         -1.30192e-05
vsel3#branch                                 0
vsel2#branch                                 0
vsel1#branch                                 0
vsel0#branch                                 0


No. of Data Rows : 7020

  Measurements for Transient Analysis

tvco_outside_while  =  2.680603e-10 targ=  1.553938e-08 trig=  1.527132e-08
fvco_outside_while  =  3.73050e+09
supply_current_rms_outside_while=   4.46878e-04 from=  1.00000e-08 to=  4.00000e-08
ground_current_rms_outside_while=   4.44392e-04 from=  1.00000e-08 to=  4.00000e-08
vctrl_avg_outside_while=  9.000000e-01 from=  1.000000e-08 to=  2.000500e-08
vhigh_outside_while =  1.924316e+00 at=  1.885500e-08
vlow_outside_while  =  -8.076857e-02 at=  1.685500e-08
peak_to_peak_outside_while=  2.00508e+00
supply_current_rms  =   4.39640e-04 from=  0.00000e+00 to=  7.00000e-08

binary raw file "3-stage_cs-vco_tb_WITH_APPENDWRITE.raw"
Reset re-loads circuit ** sch_path: /home/darunix/gitsandboxes/vco/vco/xschem/3-stage_cs-vco_tb.sch

Circuit: ** sch_path: /home/darunix/gitsandboxes/vco/vco/xschem/3-stage_cs-vco_tb.sch

option SCALE: Scale is set to 1e-06 for instance and model parameters
Doing analysis at TEMP = 27.000000 and TNOM = 27.000000

Warning: v1: no DC value, transient time 0 value used

Initial Transient Solution
--------------------------

Node                                   Voltage
----                                   -------
x1.net7                                    1.8
x1.net6                            1.16209e-06
net1                                       1.8
net2                                         0
out                                6.80528e-09
x1.vgp                                 1.66135
vctrl                                        0
x1.net8                               0.952127
x1.ng3                             9.63187e-09
x1.ng0                             3.93259e-09
x1.vco_switch_n_v2_0/selb          2.69671e-09
sel0                                       1.8
x1.ng1                             3.93259e-09
x1.vco_switch_n_v2_1/selb          2.69671e-09
sel1                                       1.8
x1.ng2                             3.93259e-09
x1.vco_switch_n_v2_2/selb          2.69671e-09
sel2                                       1.8
x1.vco_switch_n_v2_3/selb                  1.8
sel3                                         0
x1.net3                               0.952128
x1.net5                                    1.8
x1.net2                                 1.7937
x1.net4                               0.102646
x1.pg3                                     1.8
x1.pg0                                 1.66135
x1.vco_switch_p_0/selb             2.69671e-09
x1.pg1                                 1.66135
x1.pg2                                 1.66135
x1.vco_switch_p_2/selb             2.69671e-09
x1.vco_switch_p_1/selb             2.69671e-09
x1.vco_switch_p_3/selb                     1.8
vdd                                        1.8
buf1_out                           2.60627e-09
net4                                4.9501e-09
net5                                4.9501e-09
net3                                4.9501e-09
buf16_out                           4.9501e-09
v1#branch                          1.52147e-11
vmeas_current_gnd#branch           1.30191e-05
vmeas_current_vdd#branch           1.30191e-05
v2#branch                         -1.30192e-05
vsel3#branch                                 0
vsel2#branch                                 0
vsel1#branch                                 0
vsel0#branch                                 0


No. of Data Rows : 7020

  Measurements for Transient Analysis

tvco_outside_while  =  2.577627e-10 targ=  1.497831e-08 trig=  1.472055e-08
fvco_outside_while  =  3.87954e+09
supply_current_rms_outside_while=   4.85098e-04 from=  1.00000e-08 to=  4.00000e-08
ground_current_rms_outside_while=   4.78572e-04 from=  1.00000e-08 to=  4.00000e-08
vctrl_avg_outside_while=  1.000000e+00 from=  1.000000e-08 to=  2.000500e-08
vhigh_outside_while =  1.921209e+00 at=  1.867500e-08
vlow_outside_while  =  -8.080743e-02 at=  1.701500e-08
peak_to_peak_outside_while=  2.00202e+00
supply_current_rms  =   4.76899e-04 from=  0.00000e+00 to=  7.00000e-08

binary raw file "3-stage_cs-vco_tb_WITH_APPENDWRITE.raw"
Reset re-loads circuit ** sch_path: /home/darunix/gitsandboxes/vco/vco/xschem/3-stage_cs-vco_tb.sch

Circuit: ** sch_path: /home/darunix/gitsandboxes/vco/vco/xschem/3-stage_cs-vco_tb.sch

option SCALE: Scale is set to 1e-06 for instance and model parameters
Doing analysis at TEMP = 27.000000 and TNOM = 27.000000

Warning: v1: no DC value, transient time 0 value used

Initial Transient Solution
--------------------------

Node                                   Voltage
----                                   -------
x1.net7                                    1.8
x1.net6                            1.16209e-06
net1                                       1.8
net2                                         0
out                                6.80528e-09
x1.vgp                                 1.66135
vctrl                                        0
x1.net8                               0.952127
x1.ng3                             9.63187e-09
x1.ng0                             3.93259e-09
x1.vco_switch_n_v2_0/selb          2.69671e-09
sel0                                       1.8
x1.ng1                             3.93259e-09
x1.vco_switch_n_v2_1/selb          2.69671e-09
sel1                                       1.8
x1.ng2                             3.93259e-09
x1.vco_switch_n_v2_2/selb          2.69671e-09
sel2                                       1.8
x1.vco_switch_n_v2_3/selb                  1.8
sel3                                         0
x1.net3                               0.952128
x1.net5                                    1.8
x1.net2                                 1.7937
x1.net4                               0.102646
x1.pg3                                     1.8
x1.pg0                                 1.66135
x1.vco_switch_p_0/selb             2.69671e-09
x1.pg1                                 1.66135
x1.pg2                                 1.66135
x1.vco_switch_p_2/selb             2.69671e-09
x1.vco_switch_p_1/selb             2.69671e-09
x1.vco_switch_p_3/selb                     1.8
vdd                                        1.8
buf1_out                           2.60627e-09
net4                                4.9501e-09
net5                                4.9501e-09
net3                                4.9501e-09
buf16_out                           4.9501e-09
v1#branch                          1.52147e-11
vmeas_current_gnd#branch           1.30191e-05
vmeas_current_vdd#branch           1.30191e-05
v2#branch                         -1.30192e-05
vsel3#branch                                 0
vsel2#branch                                 0
vsel1#branch                                 0
vsel0#branch                                 0


No. of Data Rows : 7020

  Measurements for Transient Analysis

tvco_outside_while  =  2.531519e-10 targ=  1.472205e-08 trig=  1.446890e-08
fvco_outside_while  =  3.95020e+09
supply_current_rms_outside_while=   5.08961e-04 from=  1.00000e-08 to=  4.00000e-08
ground_current_rms_outside_while=   5.08642e-04 from=  1.00000e-08 to=  4.00000e-08
vctrl_avg_outside_while=  1.100000e+00 from=  1.000000e-08 to=  2.000500e-08
vhigh_outside_while =  1.918571e+00 at=  1.885500e-08
vlow_outside_while  =  -8.096490e-02 at=  1.368500e-08
peak_to_peak_outside_while=  1.99954e+00
supply_current_rms  =   5.01370e-04 from=  0.00000e+00 to=  7.00000e-08

binary raw file "3-stage_cs-vco_tb_WITH_APPENDWRITE.raw"
Reset re-loads circuit ** sch_path: /home/darunix/gitsandboxes/vco/vco/xschem/3-stage_cs-vco_tb.sch

Circuit: ** sch_path: /home/darunix/gitsandboxes/vco/vco/xschem/3-stage_cs-vco_tb.sch

option SCALE: Scale is set to 1e-06 for instance and model parameters
Doing analysis at TEMP = 27.000000 and TNOM = 27.000000

Warning: v1: no DC value, transient time 0 value used

Initial Transient Solution
--------------------------

Node                                   Voltage
----                                   -------
x1.net7                                    1.8
x1.net6                            1.16209e-06
net1                                       1.8
net2                                         0
out                                6.80528e-09
x1.vgp                                 1.66135
vctrl                                        0
x1.net8                               0.952127
x1.ng3                             9.63187e-09
x1.ng0                             3.93259e-09
x1.vco_switch_n_v2_0/selb          2.69671e-09
sel0                                       1.8
x1.ng1                             3.93259e-09
x1.vco_switch_n_v2_1/selb          2.69671e-09
sel1                                       1.8
x1.ng2                             3.93259e-09
x1.vco_switch_n_v2_2/selb          2.69671e-09
sel2                                       1.8
x1.vco_switch_n_v2_3/selb                  1.8
sel3                                         0
x1.net3                               0.952128
x1.net5                                    1.8
x1.net2                                 1.7937
x1.net4                               0.102646
x1.pg3                                     1.8
x1.pg0                                 1.66135
x1.vco_switch_p_0/selb             2.69671e-09
x1.pg1                                 1.66135
x1.pg2                                 1.66135
x1.vco_switch_p_2/selb             2.69671e-09
x1.vco_switch_p_1/selb             2.69671e-09
x1.vco_switch_p_3/selb                     1.8
vdd                                        1.8
buf1_out                           2.60627e-09
net4                                4.9501e-09
net5                                4.9501e-09
net3                                4.9501e-09
buf16_out                           4.9501e-09
v1#branch                          1.52147e-11
vmeas_current_gnd#branch           1.30191e-05
vmeas_current_vdd#branch           1.30191e-05
v2#branch                         -1.30192e-05
vsel3#branch                                 0
vsel2#branch                                 0
vsel1#branch                                 0
vsel0#branch                                 0


No. of Data Rows : 7020

  Measurements for Transient Analysis

tvco_outside_while  =  2.506674e-10 targ=  1.458559e-08 trig=  1.433492e-08
fvco_outside_while  =  3.98935e+09
supply_current_rms_outside_while=   5.31669e-04 from=  1.00000e-08 to=  4.00000e-08
ground_current_rms_outside_while=   5.30349e-04 from=  1.00000e-08 to=  4.00000e-08
vctrl_avg_outside_while=  1.200000e+00 from=  1.000000e-08 to=  2.000500e-08
vhigh_outside_while =  1.916730e+00 at=  1.065500e-08
vlow_outside_while  =  -8.097731e-02 at=  1.982500e-08
peak_to_peak_outside_while=  1.99771e+00
supply_current_rms  =   5.23562e-04 from=  0.00000e+00 to=  7.00000e-08

binary raw file "3-stage_cs-vco_tb_WITH_APPENDWRITE.raw"
Reset re-loads circuit ** sch_path: /home/darunix/gitsandboxes/vco/vco/xschem/3-stage_cs-vco_tb.sch

Circuit: ** sch_path: /home/darunix/gitsandboxes/vco/vco/xschem/3-stage_cs-vco_tb.sch

option SCALE: Scale is set to 1e-06 for instance and model parameters
Doing analysis at TEMP = 27.000000 and TNOM = 27.000000

Warning: v1: no DC value, transient time 0 value used

Initial Transient Solution
--------------------------

Node                                   Voltage
----                                   -------
x1.net7                                    1.8
x1.net6                            1.16209e-06
net1                                       1.8
net2                                         0
out                                6.80528e-09
x1.vgp                                 1.66135
vctrl                                        0
x1.net8                               0.952127
x1.ng3                             9.63187e-09
x1.ng0                             3.93259e-09
x1.vco_switch_n_v2_0/selb          2.69671e-09
sel0                                       1.8
x1.ng1                             3.93259e-09
x1.vco_switch_n_v2_1/selb          2.69671e-09
sel1                                       1.8
x1.ng2                             3.93259e-09
x1.vco_switch_n_v2_2/selb          2.69671e-09
sel2                                       1.8
x1.vco_switch_n_v2_3/selb                  1.8
sel3                                         0
x1.net3                               0.952128
x1.net5                                    1.8
x1.net2                                 1.7937
x1.net4                               0.102646
x1.pg3                                     1.8
x1.pg0                                 1.66135
x1.vco_switch_p_0/selb             2.69671e-09
x1.pg1                                 1.66135
x1.pg2                                 1.66135
x1.vco_switch_p_2/selb             2.69671e-09
x1.vco_switch_p_1/selb             2.69671e-09
x1.vco_switch_p_3/selb                     1.8
vdd                                        1.8
buf1_out                           2.60627e-09
net4                                4.9501e-09
net5                                4.9501e-09
net3                                4.9501e-09
buf16_out                           4.9501e-09
v1#branch                          1.52147e-11
vmeas_current_gnd#branch           1.30191e-05
vmeas_current_vdd#branch           1.30191e-05
v2#branch                         -1.30192e-05
vsel3#branch                                 0
vsel2#branch                                 0
vsel1#branch                                 0
vsel0#branch                                 0


No. of Data Rows : 7020

  Measurements for Transient Analysis

tvco_outside_while  =  2.496224e-10 targ=  1.451017e-08 trig=  1.426055e-08
fvco_outside_while  =  4.00605e+09
supply_current_rms_outside_while=   5.42816e-04 from=  1.00000e-08 to=  4.00000e-08
ground_current_rms_outside_while=   5.41885e-04 from=  1.00000e-08 to=  4.00000e-08
vctrl_avg_outside_while=  1.300000e+00 from=  1.000000e-08 to=  2.000500e-08
vhigh_outside_while =  1.915927e+00 at=  1.159500e-08
vlow_outside_while  =  -8.090664e-02 at=  1.473500e-08
peak_to_peak_outside_while=  1.99683e+00
supply_current_rms  =   5.34298e-04 from=  0.00000e+00 to=  7.00000e-08

binary raw file "3-stage_cs-vco_tb_WITH_APPENDWRITE.raw"
Reset re-loads circuit ** sch_path: /home/darunix/gitsandboxes/vco/vco/xschem/3-stage_cs-vco_tb.sch

Circuit: ** sch_path: /home/darunix/gitsandboxes/vco/vco/xschem/3-stage_cs-vco_tb.sch

option SCALE: Scale is set to 1e-06 for instance and model parameters
Doing analysis at TEMP = 27.000000 and TNOM = 27.000000

Warning: v1: no DC value, transient time 0 value used

Initial Transient Solution
--------------------------

Node                                   Voltage
----                                   -------
x1.net7                                    1.8
x1.net6                            1.16209e-06
net1                                       1.8
net2                                         0
out                                6.80528e-09
x1.vgp                                 1.66135
vctrl                                        0
x1.net8                               0.952127
x1.ng3                             9.63187e-09
x1.ng0                             3.93259e-09
x1.vco_switch_n_v2_0/selb          2.69671e-09
sel0                                       1.8
x1.ng1                             3.93259e-09
x1.vco_switch_n_v2_1/selb          2.69671e-09
sel1                                       1.8
x1.ng2                             3.93259e-09
x1.vco_switch_n_v2_2/selb          2.69671e-09
sel2                                       1.8
x1.vco_switch_n_v2_3/selb                  1.8
sel3                                         0
x1.net3                               0.952128
x1.net5                                    1.8
x1.net2                                 1.7937
x1.net4                               0.102646
x1.pg3                                     1.8
x1.pg0                                 1.66135
x1.vco_switch_p_0/selb             2.69671e-09
x1.pg1                                 1.66135
x1.pg2                                 1.66135
x1.vco_switch_p_2/selb             2.69671e-09
x1.vco_switch_p_1/selb             2.69671e-09
x1.vco_switch_p_3/selb                     1.8
vdd                                        1.8
buf1_out                           2.60627e-09
net4                                4.9501e-09
net5                                4.9501e-09
net3                                4.9501e-09
buf16_out                           4.9501e-09
v1#branch                          1.52147e-11
vmeas_current_gnd#branch           1.30191e-05
vmeas_current_vdd#branch           1.30191e-05
v2#branch                         -1.30192e-05
vsel3#branch                                 0
vsel2#branch                                 0
vsel1#branch                                 0
vsel0#branch                                 0


No. of Data Rows : 7020

  Measurements for Transient Analysis

tvco_outside_while  =  2.488677e-10 targ=  1.446017e-08 trig=  1.421131e-08
fvco_outside_while  =  4.01820e+09
supply_current_rms_outside_while=   5.49922e-04 from=  1.00000e-08 to=  4.00000e-08
ground_current_rms_outside_while=   5.49055e-04 from=  1.00000e-08 to=  4.00000e-08
vctrl_avg_outside_while=  1.400000e+00 from=  1.000000e-08 to=  2.000500e-08
vhigh_outside_while =  1.915534e+00 at=  1.553500e-08
vlow_outside_while  =  -8.085732e-02 at=  1.866500e-08
peak_to_peak_outside_while=  1.99639e+00
supply_current_rms  =   5.42046e-04 from=  0.00000e+00 to=  7.00000e-08

binary raw file "3-stage_cs-vco_tb_WITH_APPENDWRITE.raw"
Reset re-loads circuit ** sch_path: /home/darunix/gitsandboxes/vco/vco/xschem/3-stage_cs-vco_tb.sch

Circuit: ** sch_path: /home/darunix/gitsandboxes/vco/vco/xschem/3-stage_cs-vco_tb.sch

option SCALE: Scale is set to 1e-06 for instance and model parameters
Doing analysis at TEMP = 27.000000 and TNOM = 27.000000

Warning: v1: no DC value, transient time 0 value used

Initial Transient Solution
--------------------------

Node                                   Voltage
----                                   -------
x1.net7                                    1.8
x1.net6                            1.16209e-06
net1                                       1.8
net2                                         0
out                                6.80528e-09
x1.vgp                                 1.66135
vctrl                                        0
x1.net8                               0.952127
x1.ng3                             9.63187e-09
x1.ng0                             3.93259e-09
x1.vco_switch_n_v2_0/selb          2.69671e-09
sel0                                       1.8
x1.ng1                             3.93259e-09
x1.vco_switch_n_v2_1/selb          2.69671e-09
sel1                                       1.8
x1.ng2                             3.93259e-09
x1.vco_switch_n_v2_2/selb          2.69671e-09
sel2                                       1.8
x1.vco_switch_n_v2_3/selb                  1.8
sel3                                         0
x1.net3                               0.952128
x1.net5                                    1.8
x1.net2                                 1.7937
x1.net4                               0.102646
x1.pg3                                     1.8
x1.pg0                                 1.66135
x1.vco_switch_p_0/selb             2.69671e-09
x1.pg1                                 1.66135
x1.pg2                                 1.66135
x1.vco_switch_p_2/selb             2.69671e-09
x1.vco_switch_p_1/selb             2.69671e-09
x1.vco_switch_p_3/selb                     1.8
vdd                                        1.8
buf1_out                           2.60627e-09
net4                                4.9501e-09
net5                                4.9501e-09
net3                                4.9501e-09
buf16_out                           4.9501e-09
v1#branch                          1.52147e-11
vmeas_current_gnd#branch           1.30191e-05
vmeas_current_vdd#branch           1.30191e-05
v2#branch                         -1.30192e-05
vsel3#branch                                 0
vsel2#branch                                 0
vsel1#branch                                 0
vsel0#branch                                 0


No. of Data Rows : 7020

  Measurements for Transient Analysis

tvco_outside_while  =  2.483981e-10 targ=  1.442529e-08 trig=  1.417689e-08
fvco_outside_while  =  4.02580e+09
supply_current_rms_outside_while=   5.54750e-04 from=  1.00000e-08 to=  4.00000e-08
ground_current_rms_outside_while=   5.53994e-04 from=  1.00000e-08 to=  4.00000e-08
vctrl_avg_outside_while=  1.500000e+00 from=  1.000000e-08 to=  2.000500e-08
vhigh_outside_while =  1.915297e+00 at=  1.003500e-08
vlow_outside_while  =  -8.081654e-02 at=  1.514500e-08
peak_to_peak_outside_while=  1.99611e+00
supply_current_rms  =   5.46577e-04 from=  0.00000e+00 to=  7.00000e-08

binary raw file "3-stage_cs-vco_tb_WITH_APPENDWRITE.raw"
Reset re-loads circuit ** sch_path: /home/darunix/gitsandboxes/vco/vco/xschem/3-stage_cs-vco_tb.sch

Circuit: ** sch_path: /home/darunix/gitsandboxes/vco/vco/xschem/3-stage_cs-vco_tb.sch

option SCALE: Scale is set to 1e-06 for instance and model parameters
Doing analysis at TEMP = 27.000000 and TNOM = 27.000000

Warning: v1: no DC value, transient time 0 value used

Initial Transient Solution
--------------------------

Node                                   Voltage
----                                   -------
x1.net7                                    1.8
x1.net6                            1.16209e-06
net1                                       1.8
net2                                         0
out                                6.80528e-09
x1.vgp                                 1.66135
vctrl                                        0
x1.net8                               0.952127
x1.ng3                             9.63187e-09
x1.ng0                             3.93259e-09
x1.vco_switch_n_v2_0/selb          2.69671e-09
sel0                                       1.8
x1.ng1                             3.93259e-09
x1.vco_switch_n_v2_1/selb          2.69671e-09
sel1                                       1.8
x1.ng2                             3.93259e-09
x1.vco_switch_n_v2_2/selb          2.69671e-09
sel2                                       1.8
x1.vco_switch_n_v2_3/selb                  1.8
sel3                                         0
x1.net3                               0.952128
x1.net5                                    1.8
x1.net2                                 1.7937
x1.net4                               0.102646
x1.pg3                                     1.8
x1.pg0                                 1.66135
x1.vco_switch_p_0/selb             2.69671e-09
x1.pg1                                 1.66135
x1.pg2                                 1.66135
x1.vco_switch_p_2/selb             2.69671e-09
x1.vco_switch_p_1/selb             2.69671e-09
x1.vco_switch_p_3/selb                     1.8
vdd                                        1.8
buf1_out                           2.60627e-09
net4                                4.9501e-09
net5                                4.9501e-09
net3                                4.9501e-09
buf16_out                           4.9501e-09
v1#branch                          1.52147e-11
vmeas_current_gnd#branch           1.30191e-05
vmeas_current_vdd#branch           1.30191e-05
v2#branch                         -1.30192e-05
vsel3#branch                                 0
vsel2#branch                                 0
vsel1#branch                                 0
vsel0#branch                                 0


No. of Data Rows : 7020

  Measurements for Transient Analysis

tvco_outside_while  =  2.479967e-10 targ=  1.439880e-08 trig=  1.415080e-08
fvco_outside_while  =  4.03231e+09
supply_current_rms_outside_while=   5.58209e-04 from=  1.00000e-08 to=  4.00000e-08
ground_current_rms_outside_while=   5.57453e-04 from=  1.00000e-08 to=  4.00000e-08
vctrl_avg_outside_while=  1.600000e+00 from=  1.000000e-08 to=  2.000500e-08
vhigh_outside_while =  1.915156e+00 at=  1.720500e-08
vlow_outside_while  =  -8.077581e-02 at=  1.660500e-08
peak_to_peak_outside_while=  1.99593e+00
supply_current_rms  =   5.50009e-04 from=  0.00000e+00 to=  7.00000e-08

binary raw file "3-stage_cs-vco_tb_WITH_APPENDWRITE.raw"
Reset re-loads circuit ** sch_path: /home/darunix/gitsandboxes/vco/vco/xschem/3-stage_cs-vco_tb.sch

Circuit: ** sch_path: /home/darunix/gitsandboxes/vco/vco/xschem/3-stage_cs-vco_tb.sch

option SCALE: Scale is set to 1e-06 for instance and model parameters
Doing analysis at TEMP = 27.000000 and TNOM = 27.000000

Warning: v1: no DC value, transient time 0 value used

Initial Transient Solution
--------------------------

Node                                   Voltage
----                                   -------
x1.net7                                    1.8
x1.net6                            1.16209e-06
net1                                       1.8
net2                                         0
out                                6.80528e-09
x1.vgp                                 1.66135
vctrl                                        0
x1.net8                               0.952127
x1.ng3                             9.63187e-09
x1.ng0                             3.93259e-09
x1.vco_switch_n_v2_0/selb          2.69671e-09
sel0                                       1.8
x1.ng1                             3.93259e-09
x1.vco_switch_n_v2_1/selb          2.69671e-09
sel1                                       1.8
x1.ng2                             3.93259e-09
x1.vco_switch_n_v2_2/selb          2.69671e-09
sel2                                       1.8
x1.vco_switch_n_v2_3/selb                  1.8
sel3                                         0
x1.net3                               0.952128
x1.net5                                    1.8
x1.net2                                 1.7937
x1.net4                               0.102646
x1.pg3                                     1.8
x1.pg0                                 1.66135
x1.vco_switch_p_0/selb             2.69671e-09
x1.pg1                                 1.66135
x1.pg2                                 1.66135
x1.vco_switch_p_2/selb             2.69671e-09
x1.vco_switch_p_1/selb             2.69671e-09
x1.vco_switch_p_3/selb                     1.8
vdd                                        1.8
buf1_out                           2.60627e-09
net4                                4.9501e-09
net5                                4.9501e-09
net3                                4.9501e-09
buf16_out                           4.9501e-09
v1#branch                          1.52147e-11
vmeas_current_gnd#branch           1.30191e-05
vmeas_current_vdd#branch           1.30191e-05
v2#branch                         -1.30192e-05
vsel3#branch                                 0
vsel2#branch                                 0
vsel1#branch                                 0
vsel0#branch                                 0


No. of Data Rows : 7020

  Measurements for Transient Analysis

tvco_outside_while  =  2.477164e-10 targ=  1.437868e-08 trig=  1.413096e-08
fvco_outside_while  =  4.03687e+09
supply_current_rms_outside_while=   5.60611e-04 from=  1.00000e-08 to=  4.00000e-08
ground_current_rms_outside_while=   5.60169e-04 from=  1.00000e-08 to=  4.00000e-08
vctrl_avg_outside_while=  1.700000e+00 from=  1.000000e-08 to=  2.000500e-08
vhigh_outside_while =  1.915026e+00 at=  1.049500e-08
vlow_outside_while  =  -8.074174e-02 at=  1.633500e-08
peak_to_peak_outside_while=  1.99577e+00
supply_current_rms  =   5.52413e-04 from=  0.00000e+00 to=  7.00000e-08

binary raw file "3-stage_cs-vco_tb_WITH_APPENDWRITE.raw"
Reset re-loads circuit ** sch_path: /home/darunix/gitsandboxes/vco/vco/xschem/3-stage_cs-vco_tb.sch

Circuit: ** sch_path: /home/darunix/gitsandboxes/vco/vco/xschem/3-stage_cs-vco_tb.sch

option SCALE: Scale is set to 1e-06 for instance and model parameters
Doing analysis at TEMP = 27.000000 and TNOM = 27.000000

Warning: v1: no DC value, transient time 0 value used

Initial Transient Solution
--------------------------

Node                                   Voltage
----                                   -------
x1.net7                                    1.8
x1.net6                            1.16209e-06
net1                                       1.8
net2                                         0
out                                6.80528e-09
x1.vgp                                 1.66135
vctrl                                        0
x1.net8                               0.952127
x1.ng3                             9.63187e-09
x1.ng0                             3.93259e-09
x1.vco_switch_n_v2_0/selb          2.69671e-09
sel0                                       1.8
x1.ng1                             3.93259e-09
x1.vco_switch_n_v2_1/selb          2.69671e-09
sel1                                       1.8
x1.ng2                             3.93259e-09
x1.vco_switch_n_v2_2/selb          2.69671e-09
sel2                                       1.8
x1.vco_switch_n_v2_3/selb                  1.8
sel3                                         0
x1.net3                               0.952128
x1.net5                                    1.8
x1.net2                                 1.7937
x1.net4                               0.102646
x1.pg3                                     1.8
x1.pg0                                 1.66135
x1.vco_switch_p_0/selb             2.69671e-09
x1.pg1                                 1.66135
x1.pg2                                 1.66135
x1.vco_switch_p_2/selb             2.69671e-09
x1.vco_switch_p_1/selb             2.69671e-09
x1.vco_switch_p_3/selb                     1.8
vdd                                        1.8
buf1_out                           2.60627e-09
net4                                4.9501e-09
net5                                4.9501e-09
net3                                4.9501e-09
buf16_out                           4.9501e-09
v1#branch                          1.52147e-11
vmeas_current_gnd#branch           1.30191e-05
vmeas_current_vdd#branch           1.30191e-05
v2#branch                         -1.30192e-05
vsel3#branch                                 0
vsel2#branch                                 0
vsel1#branch                                 0
vsel0#branch                                 0


No. of Data Rows : 7020

  Measurements for Transient Analysis

tvco_outside_while  =  2.471562e-10 targ=  1.436251e-08 trig=  1.411536e-08
fvco_outside_while  =  4.04602e+09
supply_current_rms_outside_while=   5.63255e-04 from=  1.00000e-08 to=  4.00000e-08
ground_current_rms_outside_while=   5.62655e-04 from=  1.00000e-08 to=  4.00000e-08
vctrl_avg_outside_while=  1.800000e+00 from=  1.000000e-08 to=  2.000500e-08
vhigh_outside_while =  1.914946e+00 at=  1.889500e-08
vlow_outside_while  =  -8.073068e-02 at=  1.458500e-08
peak_to_peak_outside_while=  1.99568e+00
supply_current_rms  =   5.54831e-04 from=  0.00000e+00 to=  7.00000e-08

binary raw file "3-stage_cs-vco_tb_WITH_APPENDWRITE.raw"
Doing analysis at TEMP = 27.000000 and TNOM = 27.000000

Warning: v1: no DC value, transient time 0 value used

  Measurements for Transient Analysis

tvco_outside_while  =  2.471562e-10 targ=  1.436251e-08 trig=  1.411536e-08
Original line no.: 0, new internal line no.: 12460:
insertnumber: fails.
  s = ".meas tran fvco_outside_while param=    4.046023549291243e+09   " u="  4.046023549291243e+09  " id=0
fvco_outside_while  =  4.04602e+09
supply_current_rms_outside_while=   5.63255e-04 from=  1.00000e-08 to=  4.00000e-08
ground_current_rms_outside_while=   5.62655e-04 from=  1.00000e-08 to=  4.00000e-08
vctrl_avg_outside_while=  1.800000e+00 from=  1.000000e-08 to=  2.000500e-08
vhigh_outside_while =  1.914946e+00 at=  1.889500e-08
vlow_outside_while  =  -8.073068e-02 at=  1.458500e-08
Original line no.: 0, new internal line no.: 12466:
insertnumber: fails.
  s = ".meas tran peak_to_peak_outside_while param=    1.995676315181723e+00   " u="  1.995676315181723e+00  " id=0
peak_to_peak_outside_while=  1.99568e+00
supply_current_rms  =   5.54831e-04 from=  0.00000e+00 to=  7.00000e-08


Total analysis time (seconds) = 15.161

Total CPU time (seconds) = 281.199 

Total DRAM available = 7952.234 MB.
DRAM currently available = 4233.176 MB.
Maximum ngspice program size =  684.824 MB.
Current ngspice program size =  667.395 MB.

Shared ngspice pages =   10.223 MB.
Text (code) pages =    7.879 MB.
Stack = 0 bytes.
Library pages =  657.340 MB.

