
Compatibility modes selected: hs a

Warning: m=xx on .subckt line will override multiplier m hierarchy!


Circuit: ** sch_path: /home/darunix/gitsandboxes/vco/vco/xschem/3-stage_cs-vco_tb.sch

option SCALE: Scale is set to 1e-06 for instance and model parameters
Reset re-loads circuit ** sch_path: /home/darunix/gitsandboxes/vco/vco/xschem/3-stage_cs-vco_tb.sch

Circuit: ** sch_path: /home/darunix/gitsandboxes/vco/vco/xschem/3-stage_cs-vco_tb.sch

option SCALE: Scale is set to 1e-06 for instance and model parameters
Reset re-loads circuit ** sch_path: /home/darunix/gitsandboxes/vco/vco/xschem/3-stage_cs-vco_tb.sch

Circuit: ** sch_path: /home/darunix/gitsandboxes/vco/vco/xschem/3-stage_cs-vco_tb.sch

option SCALE: Scale is set to 1e-06 for instance and model parameters
Doing analysis at TEMP = 27.000000 and TNOM = 27.000000

Warning: v1: no DC value, transient time 0 value used

Initial Transient Solution
--------------------------

Node                                   Voltage
----                                   -------
x1.net7                                    1.8
x1.net6                            1.12909e-06
net1                                       1.8
net2                                         0
out                                6.80528e-09
x1.vgp                                 1.66618
vctrl                                        0
x1.net8                               0.938142
x1.ng3                             9.63187e-09
x1.net5                                    1.8
x1.ng0                             3.93259e-09
x1.vco_switch_n_v2_0/selb          2.69671e-09
sel0                                       1.8
x1.ng1                             3.93259e-09
x1.vco_switch_n_v2_1/selb          2.69671e-09
sel1                                       1.8
x1.ng2                             9.63187e-09
x1.vco_switch_n_v2_2/selb                  1.8
sel2                                         0
x1.vco_switch_n_v2_3/selb                  1.8
sel3                                         0
x1.net3                               0.938142
x1.net2                                1.79219
x1.net4                               0.130516
x1.pg3                                     1.8
x1.pg0                                 1.66618
x1.vco_switch_p_0/selb             2.69671e-09
x1.pg1                                 1.66618
x1.pg2                                     1.8
x1.vco_switch_p_2/selb                     1.8
x1.vco_switch_p_1/selb             2.69671e-09
x1.vco_switch_p_3/selb                     1.8
vdd                                        1.8
buf1_out                           2.60627e-09
net4                                4.9501e-09
net5                                4.9501e-09
net3                                4.9501e-09
buf16_out                           4.9501e-09
v1#branch                          1.60237e-11
vmeas_current_gnd#branch           1.37538e-05
vmeas_current_vdd#branch           1.37538e-05
v2#branch                         -1.37539e-05
vsel3#branch                                 0
vsel2#branch                                 0
vsel1#branch                                 0
vsel0#branch                                 0


No. of Data Rows : 7020

  Measurements for Transient Analysis


Error: measure  tvco_outside_while  (TRIG) : out of interval
 .meas tran tvco_outside_while trig v(out) val=0.5*1.8 rise=50 targ v(out) val=0.5*1.8 rise=51 failed!

Original line no.: 0, new internal line no.: 12460:
Undefined number [tvco_outside_while]
Original line no.: 0, new internal line no.: 12460:
Cannot compute substitute
fvco_outside_while  =   failed
supply_current_rms_outside_while=   4.44520e-05 from=  1.00000e-08 to=  4.00000e-08
ground_current_rms_outside_while=   4.78335e-05 from=  1.00000e-08 to=  4.00000e-08
vctrl_avg_outside_while=  0.000000e+00 from=  1.000000e-08 to=  2.000500e-08
vhigh_outside_while =  5.760322e-06 at=  1.001500e-08
vlow_outside_while  =  -5.745752e-06 at=  1.002500e-08
peak_to_peak_outside_while=  1.15061e-05
supply_current_rms  =   6.75140e-05 from=  0.00000e+00 to=  7.00000e-08

binary raw file "3-stage_cs-vco_tb_WITH_APPENDWRITE.raw"
Reset re-loads circuit ** sch_path: /home/darunix/gitsandboxes/vco/vco/xschem/3-stage_cs-vco_tb.sch

Circuit: ** sch_path: /home/darunix/gitsandboxes/vco/vco/xschem/3-stage_cs-vco_tb.sch

option SCALE: Scale is set to 1e-06 for instance and model parameters
Doing analysis at TEMP = 27.000000 and TNOM = 27.000000

Warning: v1: no DC value, transient time 0 value used

Initial Transient Solution
--------------------------

Node                                   Voltage
----                                   -------
x1.net7                                    1.8
x1.net6                            1.12909e-06
net1                                       1.8
net2                                         0
out                                6.80528e-09
x1.vgp                                 1.66618
vctrl                                        0
x1.net8                               0.938142
x1.ng3                             9.63187e-09
x1.net5                                    1.8
x1.ng0                             3.93259e-09
x1.vco_switch_n_v2_0/selb          2.69671e-09
sel0                                       1.8
x1.ng1                             3.93259e-09
x1.vco_switch_n_v2_1/selb          2.69671e-09
sel1                                       1.8
x1.ng2                             9.63187e-09
x1.vco_switch_n_v2_2/selb                  1.8
sel2                                         0
x1.vco_switch_n_v2_3/selb                  1.8
sel3                                         0
x1.net3                               0.938142
x1.net2                                1.79219
x1.net4                               0.130516
x1.pg3                                     1.8
x1.pg0                                 1.66618
x1.vco_switch_p_0/selb             2.69671e-09
x1.pg1                                 1.66618
x1.pg2                                     1.8
x1.vco_switch_p_2/selb                     1.8
x1.vco_switch_p_1/selb             2.69671e-09
x1.vco_switch_p_3/selb                     1.8
vdd                                        1.8
buf1_out                           2.60627e-09
net4                                4.9501e-09
net5                                4.9501e-09
net3                                4.9501e-09
buf16_out                           4.9501e-09
v1#branch                          1.60237e-11
vmeas_current_gnd#branch           1.37538e-05
vmeas_current_vdd#branch           1.37538e-05
v2#branch                         -1.37539e-05
vsel3#branch                                 0
vsel2#branch                                 0
vsel1#branch                                 0
vsel0#branch                                 0


No. of Data Rows : 7020

  Measurements for Transient Analysis


Error: measure  tvco_outside_while  (TRIG) : out of interval
 .meas tran tvco_outside_while trig v(out) val=0.5*1.8 rise=50 targ v(out) val=0.5*1.8 rise=51 failed!

Original line no.: 0, new internal line no.: 12460:
Undefined number [tvco_outside_while]
Original line no.: 0, new internal line no.: 12460:
Cannot compute substitute
fvco_outside_while  =   failed
supply_current_rms_outside_while=   6.18212e-05 from=  1.00000e-08 to=  4.00000e-08
ground_current_rms_outside_while=   1.45400e-05 from=  1.00000e-08 to=  4.00000e-08
vctrl_avg_outside_while=  1.000000e-01 from=  1.000000e-08 to=  2.000500e-08
vhigh_outside_while =  5.304070e-06 at=  1.001500e-08
vlow_outside_while  =  -5.312619e-06 at=  1.000500e-08
peak_to_peak_outside_while=  1.06167e-05
supply_current_rms  =   7.86452e-05 from=  0.00000e+00 to=  7.00000e-08

binary raw file "3-stage_cs-vco_tb_WITH_APPENDWRITE.raw"
Reset re-loads circuit ** sch_path: /home/darunix/gitsandboxes/vco/vco/xschem/3-stage_cs-vco_tb.sch

Circuit: ** sch_path: /home/darunix/gitsandboxes/vco/vco/xschem/3-stage_cs-vco_tb.sch

option SCALE: Scale is set to 1e-06 for instance and model parameters
Doing analysis at TEMP = 27.000000 and TNOM = 27.000000

Warning: v1: no DC value, transient time 0 value used

Initial Transient Solution
--------------------------

Node                                   Voltage
----                                   -------
x1.net7                                    1.8
x1.net6                            1.12909e-06
net1                                       1.8
net2                                         0
out                                6.80528e-09
x1.vgp                                 1.66618
vctrl                                        0
x1.net8                               0.938142
x1.ng3                             9.63187e-09
x1.net5                                    1.8
x1.ng0                             3.93259e-09
x1.vco_switch_n_v2_0/selb          2.69671e-09
sel0                                       1.8
x1.ng1                             3.93259e-09
x1.vco_switch_n_v2_1/selb          2.69671e-09
sel1                                       1.8
x1.ng2                             9.63187e-09
x1.vco_switch_n_v2_2/selb                  1.8
sel2                                         0
x1.vco_switch_n_v2_3/selb                  1.8
sel3                                         0
x1.net3                               0.938142
x1.net2                                1.79219
x1.net4                               0.130516
x1.pg3                                     1.8
x1.pg0                                 1.66618
x1.vco_switch_p_0/selb             2.69671e-09
x1.pg1                                 1.66618
x1.pg2                                     1.8
x1.vco_switch_p_2/selb                     1.8
x1.vco_switch_p_1/selb             2.69671e-09
x1.vco_switch_p_3/selb                     1.8
vdd                                        1.8
buf1_out                           2.60627e-09
net4                                4.9501e-09
net5                                4.9501e-09
net3                                4.9501e-09
buf16_out                           4.9501e-09
v1#branch                          1.60237e-11
vmeas_current_gnd#branch           1.37538e-05
vmeas_current_vdd#branch           1.37538e-05
v2#branch                         -1.37539e-05
vsel3#branch                                 0
vsel2#branch                                 0
vsel1#branch                                 0
vsel0#branch                                 0


No. of Data Rows : 7020

  Measurements for Transient Analysis


Error: measure  tvco_outside_while  (TRIG) : out of interval
 .meas tran tvco_outside_while trig v(out) val=0.5*1.8 rise=50 targ v(out) val=0.5*1.8 rise=51 failed!

Original line no.: 0, new internal line no.: 12460:
Undefined number [tvco_outside_while]
Original line no.: 0, new internal line no.: 12460:
Cannot compute substitute
fvco_outside_while  =   failed
supply_current_rms_outside_while=   1.53894e-05 from=  1.00000e-08 to=  4.00000e-08
ground_current_rms_outside_while=   1.62993e-05 from=  1.00000e-08 to=  4.00000e-08
vctrl_avg_outside_while=  2.000000e-01 from=  1.000000e-08 to=  2.000500e-08
vhigh_outside_while =  3.147335e-06 at=  1.000500e-08
vlow_outside_while  =  -2.546222e-06 at=  1.001500e-08
peak_to_peak_outside_while=  5.69356e-06
supply_current_rms  =   5.53727e-05 from=  0.00000e+00 to=  7.00000e-08

binary raw file "3-stage_cs-vco_tb_WITH_APPENDWRITE.raw"
Reset re-loads circuit ** sch_path: /home/darunix/gitsandboxes/vco/vco/xschem/3-stage_cs-vco_tb.sch

Circuit: ** sch_path: /home/darunix/gitsandboxes/vco/vco/xschem/3-stage_cs-vco_tb.sch

option SCALE: Scale is set to 1e-06 for instance and model parameters
Doing analysis at TEMP = 27.000000 and TNOM = 27.000000

Warning: v1: no DC value, transient time 0 value used

Initial Transient Solution
--------------------------

Node                                   Voltage
----                                   -------
x1.net7                                    1.8
x1.net6                            1.12909e-06
net1                                       1.8
net2                                         0
out                                6.80528e-09
x1.vgp                                 1.66618
vctrl                                        0
x1.net8                               0.938142
x1.ng3                             9.63187e-09
x1.net5                                    1.8
x1.ng0                             3.93259e-09
x1.vco_switch_n_v2_0/selb          2.69671e-09
sel0                                       1.8
x1.ng1                             3.93259e-09
x1.vco_switch_n_v2_1/selb          2.69671e-09
sel1                                       1.8
x1.ng2                             9.63187e-09
x1.vco_switch_n_v2_2/selb                  1.8
sel2                                         0
x1.vco_switch_n_v2_3/selb                  1.8
sel3                                         0
x1.net3                               0.938142
x1.net2                                1.79219
x1.net4                               0.130516
x1.pg3                                     1.8
x1.pg0                                 1.66618
x1.vco_switch_p_0/selb             2.69671e-09
x1.pg1                                 1.66618
x1.pg2                                     1.8
x1.vco_switch_p_2/selb                     1.8
x1.vco_switch_p_1/selb             2.69671e-09
x1.vco_switch_p_3/selb                     1.8
vdd                                        1.8
buf1_out                           2.60627e-09
net4                                4.9501e-09
net5                                4.9501e-09
net3                                4.9501e-09
buf16_out                           4.9501e-09
v1#branch                          1.60237e-11
vmeas_current_gnd#branch           1.37538e-05
vmeas_current_vdd#branch           1.37538e-05
v2#branch                         -1.37539e-05
vsel3#branch                                 0
vsel2#branch                                 0
vsel1#branch                                 0
vsel0#branch                                 0


No. of Data Rows : 7020

  Measurements for Transient Analysis


Error: measure  tvco_outside_while  (TRIG) : out of interval
 .meas tran tvco_outside_while trig v(out) val=0.5*1.8 rise=50 targ v(out) val=0.5*1.8 rise=51 failed!

Original line no.: 0, new internal line no.: 12460:
Undefined number [tvco_outside_while]
Original line no.: 0, new internal line no.: 12460:
Cannot compute substitute
fvco_outside_while  =   failed
supply_current_rms_outside_while=   6.29585e-05 from=  1.00000e-08 to=  4.00000e-08
ground_current_rms_outside_while=   4.40052e-05 from=  1.00000e-08 to=  4.00000e-08
vctrl_avg_outside_while=  3.000000e-01 from=  1.000000e-08 to=  2.000500e-08
vhigh_outside_while =  1.202137e-05 at=  1.000500e-08
vlow_outside_while  =  -1.196396e-05 at=  1.001500e-08
peak_to_peak_outside_while=  2.39853e-05
supply_current_rms  =   8.03314e-05 from=  0.00000e+00 to=  7.00000e-08

binary raw file "3-stage_cs-vco_tb_WITH_APPENDWRITE.raw"
Reset re-loads circuit ** sch_path: /home/darunix/gitsandboxes/vco/vco/xschem/3-stage_cs-vco_tb.sch

Circuit: ** sch_path: /home/darunix/gitsandboxes/vco/vco/xschem/3-stage_cs-vco_tb.sch

option SCALE: Scale is set to 1e-06 for instance and model parameters
Doing analysis at TEMP = 27.000000 and TNOM = 27.000000

Warning: v1: no DC value, transient time 0 value used

Initial Transient Solution
--------------------------

Node                                   Voltage
----                                   -------
x1.net7                                    1.8
x1.net6                            1.12909e-06
net1                                       1.8
net2                                         0
out                                6.80528e-09
x1.vgp                                 1.66618
vctrl                                        0
x1.net8                               0.938142
x1.ng3                             9.63187e-09
x1.net5                                    1.8
x1.ng0                             3.93259e-09
x1.vco_switch_n_v2_0/selb          2.69671e-09
sel0                                       1.8
x1.ng1                             3.93259e-09
x1.vco_switch_n_v2_1/selb          2.69671e-09
sel1                                       1.8
x1.ng2                             9.63187e-09
x1.vco_switch_n_v2_2/selb                  1.8
sel2                                         0
x1.vco_switch_n_v2_3/selb                  1.8
sel3                                         0
x1.net3                               0.938142
x1.net2                                1.79219
x1.net4                               0.130516
x1.pg3                                     1.8
x1.pg0                                 1.66618
x1.vco_switch_p_0/selb             2.69671e-09
x1.pg1                                 1.66618
x1.pg2                                     1.8
x1.vco_switch_p_2/selb                     1.8
x1.vco_switch_p_1/selb             2.69671e-09
x1.vco_switch_p_3/selb                     1.8
vdd                                        1.8
buf1_out                           2.60627e-09
net4                                4.9501e-09
net5                                4.9501e-09
net3                                4.9501e-09
buf16_out                           4.9501e-09
v1#branch                          1.60237e-11
vmeas_current_gnd#branch           1.37538e-05
vmeas_current_vdd#branch           1.37538e-05
v2#branch                         -1.37539e-05
vsel3#branch                                 0
vsel2#branch                                 0
vsel1#branch                                 0
vsel0#branch                                 0


No. of Data Rows : 7020

  Measurements for Transient Analysis


Error: measure  tvco_outside_while  (TRIG) : out of interval
 .meas tran tvco_outside_while trig v(out) val=0.5*1.8 rise=50 targ v(out) val=0.5*1.8 rise=51 failed!

Original line no.: 0, new internal line no.: 12460:
Undefined number [tvco_outside_while]
Original line no.: 0, new internal line no.: 12460:
Cannot compute substitute
fvco_outside_while  =   failed
supply_current_rms_outside_while=   2.82455e-05 from=  1.00000e-08 to=  4.00000e-08
ground_current_rms_outside_while=   7.20352e-05 from=  1.00000e-08 to=  4.00000e-08
vctrl_avg_outside_while=  4.000000e-01 from=  1.000000e-08 to=  2.000500e-08
vhigh_outside_while =  1.055187e-05 at=  1.000500e-08
vlow_outside_while  =  -1.052455e-05 at=  1.001500e-08
peak_to_peak_outside_while=  2.10764e-05
supply_current_rms  =   6.04304e-05 from=  0.00000e+00 to=  7.00000e-08

binary raw file "3-stage_cs-vco_tb_WITH_APPENDWRITE.raw"
Reset re-loads circuit ** sch_path: /home/darunix/gitsandboxes/vco/vco/xschem/3-stage_cs-vco_tb.sch

Circuit: ** sch_path: /home/darunix/gitsandboxes/vco/vco/xschem/3-stage_cs-vco_tb.sch

option SCALE: Scale is set to 1e-06 for instance and model parameters
Doing analysis at TEMP = 27.000000 and TNOM = 27.000000

Warning: v1: no DC value, transient time 0 value used

Initial Transient Solution
--------------------------

Node                                   Voltage
----                                   -------
x1.net7                                    1.8
x1.net6                            1.12909e-06
net1                                       1.8
net2                                         0
out                                6.80528e-09
x1.vgp                                 1.66618
vctrl                                        0
x1.net8                               0.938142
x1.ng3                             9.63187e-09
x1.net5                                    1.8
x1.ng0                             3.93259e-09
x1.vco_switch_n_v2_0/selb          2.69671e-09
sel0                                       1.8
x1.ng1                             3.93259e-09
x1.vco_switch_n_v2_1/selb          2.69671e-09
sel1                                       1.8
x1.ng2                             9.63187e-09
x1.vco_switch_n_v2_2/selb                  1.8
sel2                                         0
x1.vco_switch_n_v2_3/selb                  1.8
sel3                                         0
x1.net3                               0.938142
x1.net2                                1.79219
x1.net4                               0.130516
x1.pg3                                     1.8
x1.pg0                                 1.66618
x1.vco_switch_p_0/selb             2.69671e-09
x1.pg1                                 1.66618
x1.pg2                                     1.8
x1.vco_switch_p_2/selb                     1.8
x1.vco_switch_p_1/selb             2.69671e-09
x1.vco_switch_p_3/selb                     1.8
vdd                                        1.8
buf1_out                           2.60627e-09
net4                                4.9501e-09
net5                                4.9501e-09
net3                                4.9501e-09
buf16_out                           4.9501e-09
v1#branch                          1.60237e-11
vmeas_current_gnd#branch           1.37538e-05
vmeas_current_vdd#branch           1.37538e-05
v2#branch                         -1.37539e-05
vsel3#branch                                 0
vsel2#branch                                 0
vsel1#branch                                 0
vsel0#branch                                 0


No. of Data Rows : 7020

  Measurements for Transient Analysis


Error: measure  tvco_outside_while  (TRIG) : out of interval
 .meas tran tvco_outside_while trig v(out) val=0.5*1.8 rise=50 targ v(out) val=0.5*1.8 rise=51 failed!

Original line no.: 0, new internal line no.: 12460:
Undefined number [tvco_outside_while]
Original line no.: 0, new internal line no.: 12460:
Cannot compute substitute
fvco_outside_while  =   failed
supply_current_rms_outside_while=   3.12736e-05 from=  1.00000e-08 to=  4.00000e-08
ground_current_rms_outside_while=   5.70702e-05 from=  1.00000e-08 to=  4.00000e-08
vctrl_avg_outside_while=  5.000000e-01 from=  1.000000e-08 to=  2.000500e-08
vhigh_outside_while =  1.665290e-02 at=  1.905500e-08
vlow_outside_while  =  -2.055050e-02 at=  1.900500e-08
peak_to_peak_outside_while=  3.72034e-02
supply_current_rms  =   6.06047e-05 from=  0.00000e+00 to=  7.00000e-08

binary raw file "3-stage_cs-vco_tb_WITH_APPENDWRITE.raw"
Reset re-loads circuit ** sch_path: /home/darunix/gitsandboxes/vco/vco/xschem/3-stage_cs-vco_tb.sch

Circuit: ** sch_path: /home/darunix/gitsandboxes/vco/vco/xschem/3-stage_cs-vco_tb.sch

option SCALE: Scale is set to 1e-06 for instance and model parameters
Doing analysis at TEMP = 27.000000 and TNOM = 27.000000

Warning: v1: no DC value, transient time 0 value used

Initial Transient Solution
--------------------------

Node                                   Voltage
----                                   -------
x1.net7                                    1.8
x1.net6                            1.12909e-06
net1                                       1.8
net2                                         0
out                                6.80528e-09
x1.vgp                                 1.66618
vctrl                                        0
x1.net8                               0.938142
x1.ng3                             9.63187e-09
x1.net5                                    1.8
x1.ng0                             3.93259e-09
x1.vco_switch_n_v2_0/selb          2.69671e-09
sel0                                       1.8
x1.ng1                             3.93259e-09
x1.vco_switch_n_v2_1/selb          2.69671e-09
sel1                                       1.8
x1.ng2                             9.63187e-09
x1.vco_switch_n_v2_2/selb                  1.8
sel2                                         0
x1.vco_switch_n_v2_3/selb                  1.8
sel3                                         0
x1.net3                               0.938142
x1.net2                                1.79219
x1.net4                               0.130516
x1.pg3                                     1.8
x1.pg0                                 1.66618
x1.vco_switch_p_0/selb             2.69671e-09
x1.pg1                                 1.66618
x1.pg2                                     1.8
x1.vco_switch_p_2/selb                     1.8
x1.vco_switch_p_1/selb             2.69671e-09
x1.vco_switch_p_3/selb                     1.8
vdd                                        1.8
buf1_out                           2.60627e-09
net4                                4.9501e-09
net5                                4.9501e-09
net3                                4.9501e-09
buf16_out                           4.9501e-09
v1#branch                          1.60237e-11
vmeas_current_gnd#branch           1.37538e-05
vmeas_current_vdd#branch           1.37538e-05
v2#branch                         -1.37539e-05
vsel3#branch                                 0
vsel2#branch                                 0
vsel1#branch                                 0
vsel0#branch                                 0


No. of Data Rows : 7020

  Measurements for Transient Analysis

tvco_outside_while  =  1.355512e-09 targ=  6.468910e-08 trig=  6.333358e-08
fvco_outside_while  =  7.37729e+08
supply_current_rms_outside_while=   1.43154e-04 from=  1.00000e-08 to=  4.00000e-08
ground_current_rms_outside_while=   1.64976e-04 from=  1.00000e-08 to=  4.00000e-08
vctrl_avg_outside_while=  6.000000e-01 from=  1.000000e-08 to=  2.000500e-08
vhigh_outside_while =  1.929133e+00 at=  1.265500e-08
vlow_outside_while  =  -8.670451e-02 at=  1.964500e-08
peak_to_peak_outside_while=  2.01584e+00
supply_current_rms  =   1.57495e-04 from=  0.00000e+00 to=  7.00000e-08

binary raw file "3-stage_cs-vco_tb_WITH_APPENDWRITE.raw"
Reset re-loads circuit ** sch_path: /home/darunix/gitsandboxes/vco/vco/xschem/3-stage_cs-vco_tb.sch

Circuit: ** sch_path: /home/darunix/gitsandboxes/vco/vco/xschem/3-stage_cs-vco_tb.sch

option SCALE: Scale is set to 1e-06 for instance and model parameters
Doing analysis at TEMP = 27.000000 and TNOM = 27.000000

Warning: v1: no DC value, transient time 0 value used

Initial Transient Solution
--------------------------

Node                                   Voltage
----                                   -------
x1.net7                                    1.8
x1.net6                            1.12909e-06
net1                                       1.8
net2                                         0
out                                6.80528e-09
x1.vgp                                 1.66618
vctrl                                        0
x1.net8                               0.938142
x1.ng3                             9.63187e-09
x1.net5                                    1.8
x1.ng0                             3.93259e-09
x1.vco_switch_n_v2_0/selb          2.69671e-09
sel0                                       1.8
x1.ng1                             3.93259e-09
x1.vco_switch_n_v2_1/selb          2.69671e-09
sel1                                       1.8
x1.ng2                             9.63187e-09
x1.vco_switch_n_v2_2/selb                  1.8
sel2                                         0
x1.vco_switch_n_v2_3/selb                  1.8
sel3                                         0
x1.net3                               0.938142
x1.net2                                1.79219
x1.net4                               0.130516
x1.pg3                                     1.8
x1.pg0                                 1.66618
x1.vco_switch_p_0/selb             2.69671e-09
x1.pg1                                 1.66618
x1.pg2                                     1.8
x1.vco_switch_p_2/selb                     1.8
x1.vco_switch_p_1/selb             2.69671e-09
x1.vco_switch_p_3/selb                     1.8
vdd                                        1.8
buf1_out                           2.60627e-09
net4                                4.9501e-09
net5                                4.9501e-09
net3                                4.9501e-09
buf16_out                           4.9501e-09
v1#branch                          1.60237e-11
vmeas_current_gnd#branch           1.37538e-05
vmeas_current_vdd#branch           1.37538e-05
v2#branch                         -1.37539e-05
vsel3#branch                                 0
vsel2#branch                                 0
vsel1#branch                                 0
vsel0#branch                                 0


No. of Data Rows : 7020

  Measurements for Transient Analysis

tvco_outside_while  =  5.881565e-10 targ=  3.053695e-08 trig=  2.994880e-08
fvco_outside_while  =  1.70023e+09
supply_current_rms_outside_while=   2.19513e-04 from=  1.00000e-08 to=  4.00000e-08
ground_current_rms_outside_while=   2.17823e-04 from=  1.00000e-08 to=  4.00000e-08
vctrl_avg_outside_while=  7.000000e-01 from=  1.000000e-08 to=  2.000500e-08
vhigh_outside_while =  1.929861e+00 at=  1.795500e-08
vlow_outside_while  =  -8.777685e-02 at=  1.816500e-08
peak_to_peak_outside_while=  2.01764e+00
supply_current_rms  =   2.21937e-04 from=  0.00000e+00 to=  7.00000e-08

binary raw file "3-stage_cs-vco_tb_WITH_APPENDWRITE.raw"
Reset re-loads circuit ** sch_path: /home/darunix/gitsandboxes/vco/vco/xschem/3-stage_cs-vco_tb.sch

Circuit: ** sch_path: /home/darunix/gitsandboxes/vco/vco/xschem/3-stage_cs-vco_tb.sch

option SCALE: Scale is set to 1e-06 for instance and model parameters
Doing analysis at TEMP = 27.000000 and TNOM = 27.000000

Warning: v1: no DC value, transient time 0 value used

Initial Transient Solution
--------------------------

Node                                   Voltage
----                                   -------
x1.net7                                    1.8
x1.net6                            1.12909e-06
net1                                       1.8
net2                                         0
out                                6.80528e-09
x1.vgp                                 1.66618
vctrl                                        0
x1.net8                               0.938142
x1.ng3                             9.63187e-09
x1.net5                                    1.8
x1.ng0                             3.93259e-09
x1.vco_switch_n_v2_0/selb          2.69671e-09
sel0                                       1.8
x1.ng1                             3.93259e-09
x1.vco_switch_n_v2_1/selb          2.69671e-09
sel1                                       1.8
x1.ng2                             9.63187e-09
x1.vco_switch_n_v2_2/selb                  1.8
sel2                                         0
x1.vco_switch_n_v2_3/selb                  1.8
sel3                                         0
x1.net3                               0.938142
x1.net2                                1.79219
x1.net4                               0.130516
x1.pg3                                     1.8
x1.pg0                                 1.66618
x1.vco_switch_p_0/selb             2.69671e-09
x1.pg1                                 1.66618
x1.pg2                                     1.8
x1.vco_switch_p_2/selb                     1.8
x1.vco_switch_p_1/selb             2.69671e-09
x1.vco_switch_p_3/selb                     1.8
vdd                                        1.8
buf1_out                           2.60627e-09
net4                                4.9501e-09
net5                                4.9501e-09
net3                                4.9501e-09
buf16_out                           4.9501e-09
v1#branch                          1.60237e-11
vmeas_current_gnd#branch           1.37538e-05
vmeas_current_vdd#branch           1.37538e-05
v2#branch                         -1.37539e-05
vsel3#branch                                 0
vsel2#branch                                 0
vsel1#branch                                 0
vsel0#branch                                 0


No. of Data Rows : 7020

  Measurements for Transient Analysis

tvco_outside_while  =  3.260785e-10 targ=  1.840352e-08 trig=  1.807744e-08
fvco_outside_while  =  3.06675e+09
supply_current_rms_outside_while=   3.56209e-04 from=  1.00000e-08 to=  4.00000e-08
ground_current_rms_outside_while=   3.57712e-04 from=  1.00000e-08 to=  4.00000e-08
vctrl_avg_outside_while=  8.000000e-01 from=  1.000000e-08 to=  2.000500e-08
vhigh_outside_while =  1.930199e+00 at=  1.789500e-08
vlow_outside_while  =  -8.578716e-02 at=  1.446500e-08
peak_to_peak_outside_while=  2.01599e+00
supply_current_rms  =   3.50776e-04 from=  0.00000e+00 to=  7.00000e-08

binary raw file "3-stage_cs-vco_tb_WITH_APPENDWRITE.raw"
Reset re-loads circuit ** sch_path: /home/darunix/gitsandboxes/vco/vco/xschem/3-stage_cs-vco_tb.sch

Circuit: ** sch_path: /home/darunix/gitsandboxes/vco/vco/xschem/3-stage_cs-vco_tb.sch

option SCALE: Scale is set to 1e-06 for instance and model parameters
Doing analysis at TEMP = 27.000000 and TNOM = 27.000000

Warning: v1: no DC value, transient time 0 value used

Initial Transient Solution
--------------------------

Node                                   Voltage
----                                   -------
x1.net7                                    1.8
x1.net6                            1.12909e-06
net1                                       1.8
net2                                         0
out                                6.80528e-09
x1.vgp                                 1.66618
vctrl                                        0
x1.net8                               0.938142
x1.ng3                             9.63187e-09
x1.net5                                    1.8
x1.ng0                             3.93259e-09
x1.vco_switch_n_v2_0/selb          2.69671e-09
sel0                                       1.8
x1.ng1                             3.93259e-09
x1.vco_switch_n_v2_1/selb          2.69671e-09
sel1                                       1.8
x1.ng2                             9.63187e-09
x1.vco_switch_n_v2_2/selb                  1.8
sel2                                         0
x1.vco_switch_n_v2_3/selb                  1.8
sel3                                         0
x1.net3                               0.938142
x1.net2                                1.79219
x1.net4                               0.130516
x1.pg3                                     1.8
x1.pg0                                 1.66618
x1.vco_switch_p_0/selb             2.69671e-09
x1.pg1                                 1.66618
x1.pg2                                     1.8
x1.vco_switch_p_2/selb                     1.8
x1.vco_switch_p_1/selb             2.69671e-09
x1.vco_switch_p_3/selb                     1.8
vdd                                        1.8
buf1_out                           2.60627e-09
net4                                4.9501e-09
net5                                4.9501e-09
net3                                4.9501e-09
buf16_out                           4.9501e-09
v1#branch                          1.60237e-11
vmeas_current_gnd#branch           1.37538e-05
vmeas_current_vdd#branch           1.37538e-05
v2#branch                         -1.37539e-05
vsel3#branch                                 0
vsel2#branch                                 0
vsel1#branch                                 0
vsel0#branch                                 0


No. of Data Rows : 7020

  Measurements for Transient Analysis

tvco_outside_while  =  2.893118e-10 targ=  1.647110e-08 trig=  1.618179e-08
fvco_outside_while  =  3.45648e+09
supply_current_rms_outside_while=   4.25893e-04 from=  1.00000e-08 to=  4.00000e-08
ground_current_rms_outside_while=   4.19923e-04 from=  1.00000e-08 to=  4.00000e-08
vctrl_avg_outside_while=  9.000000e-01 from=  1.000000e-08 to=  2.000500e-08
vhigh_outside_while =  1.928056e+00 at=  1.484500e-08
vlow_outside_while  =  -8.567244e-02 at=  1.268500e-08
peak_to_peak_outside_while=  2.01373e+00
supply_current_rms  =   4.19349e-04 from=  0.00000e+00 to=  7.00000e-08

binary raw file "3-stage_cs-vco_tb_WITH_APPENDWRITE.raw"
Reset re-loads circuit ** sch_path: /home/darunix/gitsandboxes/vco/vco/xschem/3-stage_cs-vco_tb.sch

Circuit: ** sch_path: /home/darunix/gitsandboxes/vco/vco/xschem/3-stage_cs-vco_tb.sch

option SCALE: Scale is set to 1e-06 for instance and model parameters
Doing analysis at TEMP = 27.000000 and TNOM = 27.000000

Warning: v1: no DC value, transient time 0 value used

Initial Transient Solution
--------------------------

Node                                   Voltage
----                                   -------
x1.net7                                    1.8
x1.net6                            1.12909e-06
net1                                       1.8
net2                                         0
out                                6.80528e-09
x1.vgp                                 1.66618
vctrl                                        0
x1.net8                               0.938142
x1.ng3                             9.63187e-09
x1.net5                                    1.8
x1.ng0                             3.93259e-09
x1.vco_switch_n_v2_0/selb          2.69671e-09
sel0                                       1.8
x1.ng1                             3.93259e-09
x1.vco_switch_n_v2_1/selb          2.69671e-09
sel1                                       1.8
x1.ng2                             9.63187e-09
x1.vco_switch_n_v2_2/selb                  1.8
sel2                                         0
x1.vco_switch_n_v2_3/selb                  1.8
sel3                                         0
x1.net3                               0.938142
x1.net2                                1.79219
x1.net4                               0.130516
x1.pg3                                     1.8
x1.pg0                                 1.66618
x1.vco_switch_p_0/selb             2.69671e-09
x1.pg1                                 1.66618
x1.pg2                                     1.8
x1.vco_switch_p_2/selb                     1.8
x1.vco_switch_p_1/selb             2.69671e-09
x1.vco_switch_p_3/selb                     1.8
vdd                                        1.8
buf1_out                           2.60627e-09
net4                                4.9501e-09
net5                                4.9501e-09
net3                                4.9501e-09
buf16_out                           4.9501e-09
v1#branch                          1.60237e-11
vmeas_current_gnd#branch           1.37538e-05
vmeas_current_vdd#branch           1.37538e-05
v2#branch                         -1.37539e-05
vsel3#branch                                 0
vsel2#branch                                 0
vsel1#branch                                 0
vsel0#branch                                 0


No. of Data Rows : 7020

  Measurements for Transient Analysis

tvco_outside_while  =  2.744849e-10 targ=  1.572040e-08 trig=  1.544592e-08
fvco_outside_while  =  3.64319e+09
supply_current_rms_outside_while=   4.64216e-04 from=  1.00000e-08 to=  4.00000e-08
ground_current_rms_outside_while=   4.61953e-04 from=  1.00000e-08 to=  4.00000e-08
vctrl_avg_outside_while=  1.000000e+00 from=  1.000000e-08 to=  2.000500e-08
vhigh_outside_while =  1.926341e+00 at=  1.939500e-08
vlow_outside_while  =  -8.481796e-02 at=  1.679500e-08
peak_to_peak_outside_while=  2.01116e+00
supply_current_rms  =   4.57540e-04 from=  0.00000e+00 to=  7.00000e-08

binary raw file "3-stage_cs-vco_tb_WITH_APPENDWRITE.raw"
Reset re-loads circuit ** sch_path: /home/darunix/gitsandboxes/vco/vco/xschem/3-stage_cs-vco_tb.sch

Circuit: ** sch_path: /home/darunix/gitsandboxes/vco/vco/xschem/3-stage_cs-vco_tb.sch

option SCALE: Scale is set to 1e-06 for instance and model parameters
Doing analysis at TEMP = 27.000000 and TNOM = 27.000000

Warning: v1: no DC value, transient time 0 value used

Initial Transient Solution
--------------------------

Node                                   Voltage
----                                   -------
x1.net7                                    1.8
x1.net6                            1.12909e-06
net1                                       1.8
net2                                         0
out                                6.80528e-09
x1.vgp                                 1.66618
vctrl                                        0
x1.net8                               0.938142
x1.ng3                             9.63187e-09
x1.net5                                    1.8
x1.ng0                             3.93259e-09
x1.vco_switch_n_v2_0/selb          2.69671e-09
sel0                                       1.8
x1.ng1                             3.93259e-09
x1.vco_switch_n_v2_1/selb          2.69671e-09
sel1                                       1.8
x1.ng2                             9.63187e-09
x1.vco_switch_n_v2_2/selb                  1.8
sel2                                         0
x1.vco_switch_n_v2_3/selb                  1.8
sel3                                         0
x1.net3                               0.938142
x1.net2                                1.79219
x1.net4                               0.130516
x1.pg3                                     1.8
x1.pg0                                 1.66618
x1.vco_switch_p_0/selb             2.69671e-09
x1.pg1                                 1.66618
x1.pg2                                     1.8
x1.vco_switch_p_2/selb                     1.8
x1.vco_switch_p_1/selb             2.69671e-09
x1.vco_switch_p_3/selb                     1.8
vdd                                        1.8
buf1_out                           2.60627e-09
net4                                4.9501e-09
net5                                4.9501e-09
net3                                4.9501e-09
buf16_out                           4.9501e-09
v1#branch                          1.60237e-11
vmeas_current_gnd#branch           1.37538e-05
vmeas_current_vdd#branch           1.37538e-05
v2#branch                         -1.37539e-05
vsel3#branch                                 0
vsel2#branch                                 0
vsel1#branch                                 0
vsel0#branch                                 0


No. of Data Rows : 7020

  Measurements for Transient Analysis

tvco_outside_while  =  2.668066e-10 targ=  1.533218e-08 trig=  1.506537e-08
fvco_outside_while  =  3.74803e+09
supply_current_rms_outside_while=   4.99621e-04 from=  1.00000e-08 to=  4.00000e-08
ground_current_rms_outside_while=   4.95793e-04 from=  1.00000e-08 to=  4.00000e-08
vctrl_avg_outside_while=  1.100000e+00 from=  1.000000e-08 to=  2.000500e-08
vhigh_outside_while =  1.924872e+00 at=  1.756500e-08
vlow_outside_while  =  -8.446532e-02 at=  1.931500e-08
peak_to_peak_outside_while=  2.00934e+00
supply_current_rms  =   4.92457e-04 from=  0.00000e+00 to=  7.00000e-08

binary raw file "3-stage_cs-vco_tb_WITH_APPENDWRITE.raw"
Reset re-loads circuit ** sch_path: /home/darunix/gitsandboxes/vco/vco/xschem/3-stage_cs-vco_tb.sch

Circuit: ** sch_path: /home/darunix/gitsandboxes/vco/vco/xschem/3-stage_cs-vco_tb.sch

option SCALE: Scale is set to 1e-06 for instance and model parameters
Doing analysis at TEMP = 27.000000 and TNOM = 27.000000

Warning: v1: no DC value, transient time 0 value used

Initial Transient Solution
--------------------------

Node                                   Voltage
----                                   -------
x1.net7                                    1.8
x1.net6                            1.12909e-06
net1                                       1.8
net2                                         0
out                                6.80528e-09
x1.vgp                                 1.66618
vctrl                                        0
x1.net8                               0.938142
x1.ng3                             9.63187e-09
x1.net5                                    1.8
x1.ng0                             3.93259e-09
x1.vco_switch_n_v2_0/selb          2.69671e-09
sel0                                       1.8
x1.ng1                             3.93259e-09
x1.vco_switch_n_v2_1/selb          2.69671e-09
sel1                                       1.8
x1.ng2                             9.63187e-09
x1.vco_switch_n_v2_2/selb                  1.8
sel2                                         0
x1.vco_switch_n_v2_3/selb                  1.8
sel3                                         0
x1.net3                               0.938142
x1.net2                                1.79219
x1.net4                               0.130516
x1.pg3                                     1.8
x1.pg0                                 1.66618
x1.vco_switch_p_0/selb             2.69671e-09
x1.pg1                                 1.66618
x1.pg2                                     1.8
x1.vco_switch_p_2/selb                     1.8
x1.vco_switch_p_1/selb             2.69671e-09
x1.vco_switch_p_3/selb                     1.8
vdd                                        1.8
buf1_out                           2.60627e-09
net4                                4.9501e-09
net5                                4.9501e-09
net3                                4.9501e-09
buf16_out                           4.9501e-09
v1#branch                          1.60237e-11
vmeas_current_gnd#branch           1.37538e-05
vmeas_current_vdd#branch           1.37538e-05
v2#branch                         -1.37539e-05
vsel3#branch                                 0
vsel2#branch                                 0
vsel1#branch                                 0
vsel0#branch                                 0


No. of Data Rows : 7020

  Measurements for Transient Analysis

tvco_outside_while  =  2.629654e-10 targ=  1.512811e-08 trig=  1.486514e-08
fvco_outside_while  =  3.80278e+09
supply_current_rms_outside_while=   5.25609e-04 from=  1.00000e-08 to=  4.00000e-08
ground_current_rms_outside_while=   5.20757e-04 from=  1.00000e-08 to=  4.00000e-08
vctrl_avg_outside_while=  1.200000e+00 from=  1.000000e-08 to=  2.000500e-08
vhigh_outside_while =  1.923949e+00 at=  1.811500e-08
vlow_outside_while  =  -8.425554e-02 at=  1.694500e-08
peak_to_peak_outside_while=  2.00820e+00
supply_current_rms  =   5.18060e-04 from=  0.00000e+00 to=  7.00000e-08

binary raw file "3-stage_cs-vco_tb_WITH_APPENDWRITE.raw"
Reset re-loads circuit ** sch_path: /home/darunix/gitsandboxes/vco/vco/xschem/3-stage_cs-vco_tb.sch

Circuit: ** sch_path: /home/darunix/gitsandboxes/vco/vco/xschem/3-stage_cs-vco_tb.sch

option SCALE: Scale is set to 1e-06 for instance and model parameters
Doing analysis at TEMP = 27.000000 and TNOM = 27.000000

Warning: v1: no DC value, transient time 0 value used

Initial Transient Solution
--------------------------

Node                                   Voltage
----                                   -------
x1.net7                                    1.8
x1.net6                            1.12909e-06
net1                                       1.8
net2                                         0
out                                6.80528e-09
x1.vgp                                 1.66618
vctrl                                        0
x1.net8                               0.938142
x1.ng3                             9.63187e-09
x1.net5                                    1.8
x1.ng0                             3.93259e-09
x1.vco_switch_n_v2_0/selb          2.69671e-09
sel0                                       1.8
x1.ng1                             3.93259e-09
x1.vco_switch_n_v2_1/selb          2.69671e-09
sel1                                       1.8
x1.ng2                             9.63187e-09
x1.vco_switch_n_v2_2/selb                  1.8
sel2                                         0
x1.vco_switch_n_v2_3/selb                  1.8
sel3                                         0
x1.net3                               0.938142
x1.net2                                1.79219
x1.net4                               0.130516
x1.pg3                                     1.8
x1.pg0                                 1.66618
x1.vco_switch_p_0/selb             2.69671e-09
x1.pg1                                 1.66618
x1.pg2                                     1.8
x1.vco_switch_p_2/selb                     1.8
x1.vco_switch_p_1/selb             2.69671e-09
x1.vco_switch_p_3/selb                     1.8
vdd                                        1.8
buf1_out                           2.60627e-09
net4                                4.9501e-09
net5                                4.9501e-09
net3                                4.9501e-09
buf16_out                           4.9501e-09
v1#branch                          1.60237e-11
vmeas_current_gnd#branch           1.37538e-05
vmeas_current_vdd#branch           1.37538e-05
v2#branch                         -1.37539e-05
vsel3#branch                                 0
vsel2#branch                                 0
vsel1#branch                                 0
vsel0#branch                                 0


No. of Data Rows : 7020

  Measurements for Transient Analysis

tvco_outside_while  =  2.611173e-10 targ=  1.501543e-08 trig=  1.475431e-08
fvco_outside_while  =  3.82970e+09
supply_current_rms_outside_while=   5.50795e-04 from=  1.00000e-08 to=  4.00000e-08
ground_current_rms_outside_while=   5.36673e-04 from=  1.00000e-08 to=  4.00000e-08
vctrl_avg_outside_while=  1.300000e+00 from=  1.000000e-08 to=  2.000500e-08
vhigh_outside_while =  1.923526e+00 at=  1.745500e-08
vlow_outside_while  =  -8.400000e-02 at=  1.629500e-08
peak_to_peak_outside_while=  2.00753e+00
supply_current_rms  =   5.42987e-04 from=  0.00000e+00 to=  7.00000e-08

binary raw file "3-stage_cs-vco_tb_WITH_APPENDWRITE.raw"
Reset re-loads circuit ** sch_path: /home/darunix/gitsandboxes/vco/vco/xschem/3-stage_cs-vco_tb.sch

Circuit: ** sch_path: /home/darunix/gitsandboxes/vco/vco/xschem/3-stage_cs-vco_tb.sch

option SCALE: Scale is set to 1e-06 for instance and model parameters
Doing analysis at TEMP = 27.000000 and TNOM = 27.000000

Warning: v1: no DC value, transient time 0 value used

Initial Transient Solution
--------------------------

Node                                   Voltage
----                                   -------
x1.net7                                    1.8
x1.net6                            1.12909e-06
net1                                       1.8
net2                                         0
out                                6.80528e-09
x1.vgp                                 1.66618
vctrl                                        0
x1.net8                               0.938142
x1.ng3                             9.63187e-09
x1.net5                                    1.8
x1.ng0                             3.93259e-09
x1.vco_switch_n_v2_0/selb          2.69671e-09
sel0                                       1.8
x1.ng1                             3.93259e-09
x1.vco_switch_n_v2_1/selb          2.69671e-09
sel1                                       1.8
x1.ng2                             9.63187e-09
x1.vco_switch_n_v2_2/selb                  1.8
sel2                                         0
x1.vco_switch_n_v2_3/selb                  1.8
sel3                                         0
x1.net3                               0.938142
x1.net2                                1.79219
x1.net4                               0.130516
x1.pg3                                     1.8
x1.pg0                                 1.66618
x1.vco_switch_p_0/selb             2.69671e-09
x1.pg1                                 1.66618
x1.pg2                                     1.8
x1.vco_switch_p_2/selb                     1.8
x1.vco_switch_p_1/selb             2.69671e-09
x1.vco_switch_p_3/selb                     1.8
vdd                                        1.8
buf1_out                           2.60627e-09
net4                                4.9501e-09
net5                                4.9501e-09
net3                                4.9501e-09
buf16_out                           4.9501e-09
v1#branch                          1.60237e-11
vmeas_current_gnd#branch           1.37538e-05
vmeas_current_vdd#branch           1.37538e-05
v2#branch                         -1.37539e-05
vsel3#branch                                 0
vsel2#branch                                 0
vsel1#branch                                 0
vsel0#branch                                 0


No. of Data Rows : 7020

  Measurements for Transient Analysis

tvco_outside_while  =  2.595432e-10 targ=  1.494198e-08 trig=  1.468244e-08
fvco_outside_while  =  3.85292e+09
supply_current_rms_outside_while=   6.09228e-04 from=  1.00000e-08 to=  4.00000e-08
ground_current_rms_outside_while=   5.66704e-04 from=  1.00000e-08 to=  4.00000e-08
vctrl_avg_outside_while=  1.400000e+00 from=  1.000000e-08 to=  2.000500e-08
vhigh_outside_while =  1.923494e+00 at=  1.347500e-08
vlow_outside_while  =  -8.382245e-02 at=  1.621500e-08
peak_to_peak_outside_while=  2.00732e+00
supply_current_rms  =   5.91837e-04 from=  0.00000e+00 to=  7.00000e-08

binary raw file "3-stage_cs-vco_tb_WITH_APPENDWRITE.raw"
Reset re-loads circuit ** sch_path: /home/darunix/gitsandboxes/vco/vco/xschem/3-stage_cs-vco_tb.sch

Circuit: ** sch_path: /home/darunix/gitsandboxes/vco/vco/xschem/3-stage_cs-vco_tb.sch

option SCALE: Scale is set to 1e-06 for instance and model parameters
Doing analysis at TEMP = 27.000000 and TNOM = 27.000000

Warning: v1: no DC value, transient time 0 value used

Initial Transient Solution
--------------------------

Node                                   Voltage
----                                   -------
x1.net7                                    1.8
x1.net6                            1.12909e-06
net1                                       1.8
net2                                         0
out                                6.80528e-09
x1.vgp                                 1.66618
vctrl                                        0
x1.net8                               0.938142
x1.ng3                             9.63187e-09
x1.net5                                    1.8
x1.ng0                             3.93259e-09
x1.vco_switch_n_v2_0/selb          2.69671e-09
sel0                                       1.8
x1.ng1                             3.93259e-09
x1.vco_switch_n_v2_1/selb          2.69671e-09
sel1                                       1.8
x1.ng2                             9.63187e-09
x1.vco_switch_n_v2_2/selb                  1.8
sel2                                         0
x1.vco_switch_n_v2_3/selb                  1.8
sel3                                         0
x1.net3                               0.938142
x1.net2                                1.79219
x1.net4                               0.130516
x1.pg3                                     1.8
x1.pg0                                 1.66618
x1.vco_switch_p_0/selb             2.69671e-09
x1.pg1                                 1.66618
x1.pg2                                     1.8
x1.vco_switch_p_2/selb                     1.8
x1.vco_switch_p_1/selb             2.69671e-09
x1.vco_switch_p_3/selb                     1.8
vdd                                        1.8
buf1_out                           2.60627e-09
net4                                4.9501e-09
net5                                4.9501e-09
net3                                4.9501e-09
buf16_out                           4.9501e-09
v1#branch                          1.60237e-11
vmeas_current_gnd#branch           1.37538e-05
vmeas_current_vdd#branch           1.37538e-05
v2#branch                         -1.37539e-05
vsel3#branch                                 0
vsel2#branch                                 0
vsel1#branch                                 0
vsel0#branch                                 0


No. of Data Rows : 7020

  Measurements for Transient Analysis

tvco_outside_while  =  2.586580e-10 targ=  1.488975e-08 trig=  1.463110e-08
fvco_outside_while  =  3.86611e+09
supply_current_rms_outside_while=   5.63674e-04 from=  1.00000e-08 to=  4.00000e-08
ground_current_rms_outside_while=   5.49396e-04 from=  1.00000e-08 to=  4.00000e-08
vctrl_avg_outside_while=  1.500000e+00 from=  1.000000e-08 to=  2.000500e-08
vhigh_outside_while =  1.923446e+00 at=  1.601500e-08
vlow_outside_while  =  -8.347040e-02 at=  1.098500e-08
peak_to_peak_outside_while=  2.00692e+00
supply_current_rms  =   5.55070e-04 from=  0.00000e+00 to=  7.00000e-08

binary raw file "3-stage_cs-vco_tb_WITH_APPENDWRITE.raw"
Reset re-loads circuit ** sch_path: /home/darunix/gitsandboxes/vco/vco/xschem/3-stage_cs-vco_tb.sch

Circuit: ** sch_path: /home/darunix/gitsandboxes/vco/vco/xschem/3-stage_cs-vco_tb.sch

option SCALE: Scale is set to 1e-06 for instance and model parameters
Doing analysis at TEMP = 27.000000 and TNOM = 27.000000

Warning: v1: no DC value, transient time 0 value used

Initial Transient Solution
--------------------------

Node                                   Voltage
----                                   -------
x1.net7                                    1.8
x1.net6                            1.12909e-06
net1                                       1.8
net2                                         0
out                                6.80528e-09
x1.vgp                                 1.66618
vctrl                                        0
x1.net8                               0.938142
x1.ng3                             9.63187e-09
x1.net5                                    1.8
x1.ng0                             3.93259e-09
x1.vco_switch_n_v2_0/selb          2.69671e-09
sel0                                       1.8
x1.ng1                             3.93259e-09
x1.vco_switch_n_v2_1/selb          2.69671e-09
sel1                                       1.8
x1.ng2                             9.63187e-09
x1.vco_switch_n_v2_2/selb                  1.8
sel2                                         0
x1.vco_switch_n_v2_3/selb                  1.8
sel3                                         0
x1.net3                               0.938142
x1.net2                                1.79219
x1.net4                               0.130516
x1.pg3                                     1.8
x1.pg0                                 1.66618
x1.vco_switch_p_0/selb             2.69671e-09
x1.pg1                                 1.66618
x1.pg2                                     1.8
x1.vco_switch_p_2/selb                     1.8
x1.vco_switch_p_1/selb             2.69671e-09
x1.vco_switch_p_3/selb                     1.8
vdd                                        1.8
buf1_out                           2.60627e-09
net4                                4.9501e-09
net5                                4.9501e-09
net3                                4.9501e-09
buf16_out                           4.9501e-09
v1#branch                          1.60237e-11
vmeas_current_gnd#branch           1.37538e-05
vmeas_current_vdd#branch           1.37538e-05
v2#branch                         -1.37539e-05
vsel3#branch                                 0
vsel2#branch                                 0
vsel1#branch                                 0
vsel0#branch                                 0


No. of Data Rows : 7020

  Measurements for Transient Analysis

tvco_outside_while  =  2.577190e-10 targ=  1.485091e-08 trig=  1.459320e-08
fvco_outside_while  =  3.88020e+09
supply_current_rms_outside_while=   5.56363e-04 from=  1.00000e-08 to=  4.00000e-08
ground_current_rms_outside_while=   5.50795e-04 from=  1.00000e-08 to=  4.00000e-08
vctrl_avg_outside_while=  1.600000e+00 from=  1.000000e-08 to=  2.000500e-08
vhigh_outside_while =  1.923358e+00 at=  1.571500e-08
vlow_outside_while  =  -8.329946e-02 at=  1.869500e-08
peak_to_peak_outside_while=  2.00666e+00
supply_current_rms  =   5.48355e-04 from=  0.00000e+00 to=  7.00000e-08

binary raw file "3-stage_cs-vco_tb_WITH_APPENDWRITE.raw"
Reset re-loads circuit ** sch_path: /home/darunix/gitsandboxes/vco/vco/xschem/3-stage_cs-vco_tb.sch

Circuit: ** sch_path: /home/darunix/gitsandboxes/vco/vco/xschem/3-stage_cs-vco_tb.sch

option SCALE: Scale is set to 1e-06 for instance and model parameters
Doing analysis at TEMP = 27.000000 and TNOM = 27.000000

Warning: v1: no DC value, transient time 0 value used

Initial Transient Solution
--------------------------

Node                                   Voltage
----                                   -------
x1.net7                                    1.8
x1.net6                            1.12909e-06
net1                                       1.8
net2                                         0
out                                6.80528e-09
x1.vgp                                 1.66618
vctrl                                        0
x1.net8                               0.938142
x1.ng3                             9.63187e-09
x1.net5                                    1.8
x1.ng0                             3.93259e-09
x1.vco_switch_n_v2_0/selb          2.69671e-09
sel0                                       1.8
x1.ng1                             3.93259e-09
x1.vco_switch_n_v2_1/selb          2.69671e-09
sel1                                       1.8
x1.ng2                             9.63187e-09
x1.vco_switch_n_v2_2/selb                  1.8
sel2                                         0
x1.vco_switch_n_v2_3/selb                  1.8
sel3                                         0
x1.net3                               0.938142
x1.net2                                1.79219
x1.net4                               0.130516
x1.pg3                                     1.8
x1.pg0                                 1.66618
x1.vco_switch_p_0/selb             2.69671e-09
x1.pg1                                 1.66618
x1.pg2                                     1.8
x1.vco_switch_p_2/selb                     1.8
x1.vco_switch_p_1/selb             2.69671e-09
x1.vco_switch_p_3/selb                     1.8
vdd                                        1.8
buf1_out                           2.60627e-09
net4                                4.9501e-09
net5                                4.9501e-09
net3                                4.9501e-09
buf16_out                           4.9501e-09
v1#branch                          1.60237e-11
vmeas_current_gnd#branch           1.37538e-05
vmeas_current_vdd#branch           1.37538e-05
v2#branch                         -1.37539e-05
vsel3#branch                                 0
vsel2#branch                                 0
vsel1#branch                                 0
vsel0#branch                                 0


No. of Data Rows : 7020

  Measurements for Transient Analysis

tvco_outside_while  =  2.571009e-10 targ=  1.482085e-08 trig=  1.456374e-08
fvco_outside_while  =  3.88952e+09
supply_current_rms_outside_while=   5.61064e-04 from=  1.00000e-08 to=  4.00000e-08
ground_current_rms_outside_while=   5.54720e-04 from=  1.00000e-08 to=  4.00000e-08
vctrl_avg_outside_while=  1.700000e+00 from=  1.000000e-08 to=  2.000500e-08
vhigh_outside_while =  1.923292e+00 at=  1.748500e-08
vlow_outside_while  =  -8.317787e-02 at=  1.685500e-08
peak_to_peak_outside_while=  2.00647e+00
supply_current_rms  =   5.53095e-04 from=  0.00000e+00 to=  7.00000e-08

binary raw file "3-stage_cs-vco_tb_WITH_APPENDWRITE.raw"
Reset re-loads circuit ** sch_path: /home/darunix/gitsandboxes/vco/vco/xschem/3-stage_cs-vco_tb.sch

Circuit: ** sch_path: /home/darunix/gitsandboxes/vco/vco/xschem/3-stage_cs-vco_tb.sch

option SCALE: Scale is set to 1e-06 for instance and model parameters
Doing analysis at TEMP = 27.000000 and TNOM = 27.000000

Warning: v1: no DC value, transient time 0 value used

Initial Transient Solution
--------------------------

Node                                   Voltage
----                                   -------
x1.net7                                    1.8
x1.net6                            1.12909e-06
net1                                       1.8
net2                                         0
out                                6.80528e-09
x1.vgp                                 1.66618
vctrl                                        0
x1.net8                               0.938142
x1.ng3                             9.63187e-09
x1.net5                                    1.8
x1.ng0                             3.93259e-09
x1.vco_switch_n_v2_0/selb          2.69671e-09
sel0                                       1.8
x1.ng1                             3.93259e-09
x1.vco_switch_n_v2_1/selb          2.69671e-09
sel1                                       1.8
x1.ng2                             9.63187e-09
x1.vco_switch_n_v2_2/selb                  1.8
sel2                                         0
x1.vco_switch_n_v2_3/selb                  1.8
sel3                                         0
x1.net3                               0.938142
x1.net2                                1.79219
x1.net4                               0.130516
x1.pg3                                     1.8
x1.pg0                                 1.66618
x1.vco_switch_p_0/selb             2.69671e-09
x1.pg1                                 1.66618
x1.pg2                                     1.8
x1.vco_switch_p_2/selb                     1.8
x1.vco_switch_p_1/selb             2.69671e-09
x1.vco_switch_p_3/selb                     1.8
vdd                                        1.8
buf1_out                           2.60627e-09
net4                                4.9501e-09
net5                                4.9501e-09
net3                                4.9501e-09
buf16_out                           4.9501e-09
v1#branch                          1.60237e-11
vmeas_current_gnd#branch           1.37538e-05
vmeas_current_vdd#branch           1.37538e-05
v2#branch                         -1.37539e-05
vsel3#branch                                 0
vsel2#branch                                 0
vsel1#branch                                 0
vsel0#branch                                 0


No. of Data Rows : 7020

  Measurements for Transient Analysis

tvco_outside_while  =  2.572479e-10 targ=  1.479746e-08 trig=  1.454021e-08
fvco_outside_while  =  3.88730e+09
supply_current_rms_outside_while=   5.60015e-04 from=  1.00000e-08 to=  4.00000e-08
ground_current_rms_outside_while=   5.57010e-04 from=  1.00000e-08 to=  4.00000e-08
vctrl_avg_outside_while=  1.800000e+00 from=  1.000000e-08 to=  2.000500e-08
vhigh_outside_while =  1.923247e+00 at=  1.848500e-08
vlow_outside_while  =  -8.309296e-02 at=  1.965500e-08
peak_to_peak_outside_while=  2.00634e+00
supply_current_rms  =   5.51593e-04 from=  0.00000e+00 to=  7.00000e-08

binary raw file "3-stage_cs-vco_tb_WITH_APPENDWRITE.raw"
Doing analysis at TEMP = 27.000000 and TNOM = 27.000000

Warning: v1: no DC value, transient time 0 value used

  Measurements for Transient Analysis

tvco_outside_while  =  2.572479e-10 targ=  1.479746e-08 trig=  1.454021e-08
Original line no.: 0, new internal line no.: 12460:
insertnumber: fails.
  s = ".meas tran fvco_outside_while param=    3.887300726576908e+09   " u="  3.887300726576908e+09  " id=0
fvco_outside_while  =  3.88730e+09
supply_current_rms_outside_while=   5.60015e-04 from=  1.00000e-08 to=  4.00000e-08
ground_current_rms_outside_while=   5.57010e-04 from=  1.00000e-08 to=  4.00000e-08
vctrl_avg_outside_while=  1.800000e+00 from=  1.000000e-08 to=  2.000500e-08
vhigh_outside_while =  1.923247e+00 at=  1.848500e-08
vlow_outside_while  =  -8.309296e-02 at=  1.965500e-08
Original line no.: 0, new internal line no.: 12466:
insertnumber: fails.
  s = ".meas tran peak_to_peak_outside_while param=    2.006339773436696e+00   " u="  2.006339773436696e+00  " id=0
peak_to_peak_outside_while=  2.00634e+00
supply_current_rms  =   5.51593e-04 from=  0.00000e+00 to=  7.00000e-08


Total analysis time (seconds) = 14.9337

Total CPU time (seconds) = 293.880 

Total DRAM available = 7952.234 MB.
DRAM currently available = 3433.090 MB.
Maximum ngspice program size =  684.809 MB.
Current ngspice program size =  665.770 MB.

Shared ngspice pages =    8.680 MB.
Text (code) pages =    7.879 MB.
Stack = 0 bytes.
Library pages =  657.324 MB.

